<connections>
  <crossing node="Cluster.75.Main" edges="Edge.MinorN.SB.75 Edge.MinorN.NB.75" priority="true" width="3.500" linkIndex="15"/>
  <crossing node="Cluster.75.Main" edges="Edge.MinorS.NB.75 Edge.MinorS.SB.75" priority="true" width="3.500" linkIndex="14"/>
  <crossing node="Cluster.225.Main" edges="Edge.MinorN.SB.225 Edge.MinorN.NB.225" priority="true" width="3.500" linkIndex="12"/>
  <crossing node="Cluster.225.Main" edges="Edge.Main.EB.180-225" priority="true" width="3.500" linkIndex="10"/>
  <crossing node="Cluster.225.Main" edges="Edge.Main.WB.225-180" priority="true" width="3.500" linkIndex="11"/>
  <crossing node="Cluster.225.Main" edges="Edge.Main.EB.225-270" priority="true" width="3.500" linkIndex="13"/>
  <crossing node="Cluster.225.Main" edges="Edge.Main.WB.270-225" priority="true" width="3.500" linkIndex="14"/>
  <connection from="Edge.Main.EB.30-75" to="Edge.MinorN.NB.75" fromLane="1" toLane="1"/>
  <connection from="Edge.Main.EB.30-75" to="Edge.Main.EB.75-120" fromLane="1" toLane="1"/>
  <connection from="Edge.Main.EB.30-75" to="Edge.Main.EB.75-120" fromLane="2" toLane="2"/>
  <connection from="Edge.Main.EB.30-75" to="Edge.MinorS.SB.75" fromLane="3" toLane="1"/>
  <connection from="Edge.Main.WB.120-75" to="Edge.MinorS.SB.75" fromLane="1" toLane="1"/>
  <connection from="Edge.Main.WB.120-75" to="Edge.Main.WB.75-30" fromLane="1" toLane="1"/>
  <connection from="Edge.Main.WB.120-75" to="Edge.Main.WB.75-30" fromLane="2" toLane="2"/>
  <connection from="Edge.Main.WB.120-75" to="Edge.MinorN.NB.75" fromLane="3" toLane="1"/>
  <connection from="Edge.MinorN.SB.75" to="Edge.Main.EB.75-120" fromLane="1" toLane="1"/>
  <connection from="Edge.MinorN.SB.75" to="Edge.MinorS.SB.75" fromLane="1" toLane="1"/>
  <connection from="Edge.MinorN.SB.75" to="Edge.Main.WB.75-30" fromLane="2" toLane="2"/>
  <connection from="Edge.MinorS.NB.75" to="Edge.Main.WB.75-30" fromLane="1" toLane="1"/>
  <connection from="Edge.MinorS.NB.75" to="Edge.MinorN.NB.75" fromLane="1" toLane="1"/>
  <connection from="Edge.MinorS.NB.75" to="Edge.Main.EB.75-120" fromLane="2" toLane="2"/>
  <connection from="Edge.Main.EB.180-225" to="Edge.MinorN.NB.225" fromLane="1" toLane="1"/>
  <connection from="Edge.Main.EB.180-225" to="Edge.Main.EB.225-270" fromLane="2" toLane="1"/>
  <connection from="Edge.Main.EB.180-225" to="Edge.Main.EB.225-270" fromLane="3" toLane="2"/>
  <connection from="Edge.Main.EB.180-225" to="Edge.Main.WB.225-180" fromLane="3" toLane="2"/>
  <connection from="Edge.Main.WB.270-225" to="Edge.Main.WB.225-180" fromLane="1" toLane="1"/>
  <connection from="Edge.Main.WB.270-225" to="Edge.Main.WB.225-180" fromLane="2" toLane="2"/>
  <connection from="Edge.Main.WB.270-225" to="Edge.MinorN.NB.225" fromLane="3" toLane="1"/>
  <connection from="Edge.Main.WB.270-225" to="Edge.Main.EB.225-270" fromLane="3" toLane="2"/>
  <connection from="Edge.MinorN.SB.225" to="Edge.Main.EB.225-270" fromLane="1" toLane="1"/>
  <connection from="Edge.MinorN.SB.225" to="Edge.Main.WB.225-180" fromLane="2" toLane="2"/>
</connections>
