<?xml version="1.0" encoding="UTF-8"?>

<!-- generated on 2025-11-02 08:34:09 by Eclipse SUMO netconvert Version 1.18.0
<configuration xmlns:xsi="http://www.w3.org/2001/XMLSchema-instance" xsi:noNamespaceSchemaLocation="http://sumo.dlr.de/xsd/netconvertConfiguration.xsd">

    <input>
        <node-files value="1-generated.nod.xml"/>
        <edge-files value="1-generated.edg.xml"/>
    </input>

    <output>
        <plain-output-prefix value="2-cooked"/>
    </output>

    <processing>
        <lefthand value="true"/>
    </processing>

    <junctions>
        <no-internal-links value="true"/>
    </junctions>

    <pedestrian>
        <sidewalks.guess value="true"/>
    </pedestrian>

</configuration>
-->

<edges version="1.16" xmlns:xsi="http://www.w3.org/2001/XMLSchema-instance" xsi:noNamespaceSchemaLocation="http://sumo.dlr.de/xsd/edges_file.xsd">
    <edge id="Edge.Main.EB.0-30" from="Node.0.MainN" to="Cluster.30.Main" priority="-1" numLanes="3" speed="13.89" shape="0.00,53.00 30.00,53.00">
        <lane index="0" allow="pedestrian" width="2.00"/>
        <lane index="1" disallow="pedestrian"/>
        <lane index="2" disallow="pedestrian"/>
    </edge>
    <edge id="Edge.Main.EB.120-180" from="Cluster.120.Main" to="Cluster.180.Main" priority="-1" numLanes="3" speed="13.89" shape="120.00,53.00 180.00,53.00">
        <lane index="0" allow="pedestrian" width="2.00"/>
        <lane index="1" disallow="pedestrian"/>
        <lane index="2" disallow="pedestrian"/>
    </edge>
    <edge id="Edge.Main.EB.180-225" from="Cluster.180.Main" to="Cluster.225.Main" priority="-1" numLanes="4" speed="13.89" shape="180.00,53.00 225.00,53.00">
        <lane index="0" allow="pedestrian" width="2.00"/>
        <lane index="1" disallow="pedestrian"/>
        <lane index="2" disallow="pedestrian"/>
        <lane index="3" disallow="pedestrian"/>
    </edge>
    <edge id="Edge.Main.EB.225-270" from="Cluster.225.Main" to="Cluster.270.Main" priority="-1" numLanes="3" speed="13.89" shape="225.00,53.00 270.00,53.00">
        <lane index="0" allow="pedestrian" width="2.00"/>
        <lane index="1" disallow="pedestrian"/>
        <lane index="2" disallow="pedestrian"/>
    </edge>
    <edge id="Edge.Main.EB.270-300" from="Cluster.270.Main" to="Node.300.MainN" priority="-1" numLanes="3" speed="13.89" shape="270.00,53.00 300.00,53.00">
        <lane index="0" allow="pedestrian" width="2.00"/>
        <lane index="1" disallow="pedestrian"/>
        <lane index="2" disallow="pedestrian"/>
    </edge>
    <edge id="Edge.Main.EB.30-75" from="Cluster.30.Main" to="Cluster.75.Main" priority="-1" numLanes="4" speed="13.89" shape="30.00,53.00 75.00,53.00">
        <lane index="0" allow="pedestrian" width="2.00"/>
        <lane index="1" disallow="pedestrian"/>
        <lane index="2" disallow="pedestrian"/>
        <lane index="3" disallow="pedestrian"/>
    </edge>
    <edge id="Edge.Main.EB.75-120" from="Cluster.75.Main" to="Cluster.120.Main" priority="-1" numLanes="3" speed="13.89" shape="75.00,53.00 120.00,53.00">
        <lane index="0" allow="pedestrian" width="2.00"/>
        <lane index="1" disallow="pedestrian"/>
        <lane index="2" disallow="pedestrian"/>
    </edge>
    <edge id="Edge.Main.WB.120-75" from="Cluster.120.Main" to="Cluster.75.Main" priority="-1" numLanes="4" speed="13.89" shape="120.00,47.00 75.00,47.00">
        <lane index="0" allow="pedestrian" width="2.00"/>
        <lane index="1" disallow="pedestrian"/>
        <lane index="2" disallow="pedestrian"/>
        <lane index="3" disallow="pedestrian"/>
    </edge>
    <edge id="Edge.Main.WB.180-120" from="Cluster.180.Main" to="Cluster.120.Main" priority="-1" numLanes="3" speed="13.89" shape="180.00,47.00 120.00,47.00">
        <lane index="0" allow="pedestrian" width="2.00"/>
        <lane index="1" disallow="pedestrian"/>
        <lane index="2" disallow="pedestrian"/>
    </edge>
    <edge id="Edge.Main.WB.225-180" from="Cluster.225.Main" to="Cluster.180.Main" priority="-1" numLanes="3" speed="13.89" shape="225.00,47.00 180.00,47.00">
        <lane index="0" allow="pedestrian" width="2.00"/>
        <lane index="1" disallow="pedestrian"/>
        <lane index="2" disallow="pedestrian"/>
    </edge>
    <edge id="Edge.Main.WB.270-225" from="Cluster.270.Main" to="Cluster.225.Main" priority="-1" numLanes="4" speed="13.89" shape="270.00,47.00 225.00,47.00">
        <lane index="0" allow="pedestrian" width="2.00"/>
        <lane index="1" disallow="pedestrian"/>
        <lane index="2" disallow="pedestrian"/>
        <lane index="3" disallow="pedestrian"/>
    </edge>
    <edge id="Edge.Main.WB.30-0" from="Cluster.30.Main" to="Node.0.MainS" priority="-1" numLanes="3" speed="13.89" shape="30.00,47.00 0.00,47.00">
        <lane index="0" allow="pedestrian" width="2.00"/>
        <lane index="1" disallow="pedestrian"/>
        <lane index="2" disallow="pedestrian"/>
    </edge>
    <edge id="Edge.Main.WB.300-270" from="Node.300.MainS" to="Cluster.270.Main" priority="-1" numLanes="3" speed="13.89" shape="300.00,47.00 270.00,47.00">
        <lane index="0" allow="pedestrian" width="2.00"/>
        <lane index="1" disallow="pedestrian"/>
        <lane index="2" disallow="pedestrian"/>
    </edge>
    <edge id="Edge.Main.WB.75-30" from="Cluster.75.Main" to="Cluster.30.Main" priority="-1" numLanes="3" speed="13.89" shape="75.00,47.00 30.00,47.00">
        <lane index="0" allow="pedestrian" width="2.00"/>
        <lane index="1" disallow="pedestrian"/>
        <lane index="2" disallow="pedestrian"/>
    </edge>
    <edge id="Edge.MinorN.NB.225" from="Cluster.225.Main" to="Node.225.MinorNEdge" priority="-1" numLanes="2" speed="13.89" shape="225.00,53.00 225.00,100.00">
        <lane index="0" allow="pedestrian" width="2.00"/>
        <lane index="1" disallow="pedestrian"/>
    </edge>
    <edge id="Edge.MinorN.NB.75" from="Cluster.75.Main" to="Node.75.MinorNEdge" priority="-1" numLanes="2" speed="13.89" shape="75.00,53.00 75.00,100.00">
        <lane index="0" allow="pedestrian" width="2.00"/>
        <lane index="1" disallow="pedestrian"/>
    </edge>
    <edge id="Edge.MinorN.SB.225" from="Node.225.MinorNEdge" to="Cluster.225.Main" priority="-1" numLanes="3" speed="13.89" shape="225.00,100.00 225.00,53.00">
        <lane index="0" allow="pedestrian" width="2.00"/>
        <lane index="1" disallow="pedestrian"/>
        <lane index="2" disallow="pedestrian"/>
    </edge>
    <edge id="Edge.MinorN.SB.75" from="Node.75.MinorNEdge" to="Cluster.75.Main" priority="-1" numLanes="3" speed="13.89" shape="75.00,100.00 75.00,53.00">
        <lane index="0" allow="pedestrian" width="2.00"/>
        <lane index="1" disallow="pedestrian"/>
        <lane index="2" disallow="pedestrian"/>
    </edge>
    <edge id="Edge.MinorS.NB.75" from="Node.75.MinorSEdge" to="Cluster.75.Main" priority="-1" numLanes="3" speed="13.89" shape="75.00,-0.00 75.00,47.00">
        <lane index="0" allow="pedestrian" width="2.00"/>
        <lane index="1" disallow="pedestrian"/>
        <lane index="2" disallow="pedestrian"/>
    </edge>
    <edge id="Edge.MinorS.SB.75" from="Cluster.75.Main" to="Node.75.MinorSEdge" priority="-1" numLanes="2" speed="13.89" shape="75.00,47.00 75.00,-0.00">
        <lane index="0" allow="pedestrian" width="2.00"/>
        <lane index="1" disallow="pedestrian"/>
    </edge>
</edges>
