<tlLogics version="1.20" xmlns:xsi="http://www.w3.org/2001/XMLSchema-instance" xsi:noNamespaceSchemaLocation="http://sumo.dlr.de/xsd/tllogic_file.xsd">
    <tlLogic id="Cluster.150.Main" type="static" programID="0" offset="0">
        <phase duration="7" state="rrrrrrrrrrrGrrGrGr"/>
        <phase duration="3" state="rrrrrrrrrrryrrGrGr"/>
        <phase duration="10" state="rrrrGrrrrrrrrrGrGr"/>
        <phase duration="7" state="rrrrGrrrrrrGrrGrGr"/>
        <phase duration="3" state="rrrryrrrrrryrrGrGr"/>
        <phase duration="7" state="rrrGrrrrrrGrrrGrGr"/>
        <phase duration="3" state="rrryrrrrrryrrrGrGr"/>
        <phase duration="7" state="rrrrrgGrrrrrgGGrGr"/>
        <phase duration="3" state="rrrrryyrrrrryyrrrr"/>
        <phase duration="7" state="rGrrrrrrGrrrrrrGrG"/>
        <phase duration="3" state="ryrrrrrryrrrrrrGrG"/>
        <phase duration="7" state="GrrrrrrGrrrrrrrGrG"/>
        <phase duration="3" state="yrrrrrryrrrrrrrGrG"/>
        <phase duration="7" state="rrgrrrrrrgrrrrrGrG"/>
        <phase duration="3" state="rryrrrrrryrrrrrGrG"/>
        <phase duration="7" state="rrrrrrrrrrrrrrGGGG"/>
        <phase duration="3" state="rrrrrrrrrrrrrrGrGr"/>
    </tlLogic>
    <connection from="Edge.MinorS.NB.150" to="Edge.Main.WB.150-100" fromLane="1" toLane="1" tl="Cluster.150.Main" linkIndex="0"/>
    <connection from="Edge.MinorS.NB.150" to="Edge.MinorN.NB.150" fromLane="2" toLane="1" tl="Cluster.150.Main" linkIndex="1"/>
    <connection from="Edge.MinorS.NB.150" to="Edge.Main.EB.150-200" fromLane="3" toLane="1" tl="Cluster.150.Main" linkIndex="2"/>
    <connection from="Edge.Main.WB.200-150" to="Edge.MinorS.SB.150" fromLane="1" toLane="1" tl="Cluster.150.Main" linkIndex="3"/>
    <connection from="Edge.Main.WB.200-150" to="Edge.Main.WB.150-100" fromLane="2" toLane="1" tl="Cluster.150.Main" linkIndex="4"/>
    <connection from="Edge.Main.WB.200-150" to="Edge.MinorN.NB.150" fromLane="3" toLane="1" tl="Cluster.150.Main" linkIndex="5"/>
    <connection from="Edge.Main.WB.200-150" to="Edge.Main.EB.150-200" fromLane="3" toLane="1" tl="Cluster.150.Main" linkIndex="6"/>
    <connection from="Edge.MinorN.SB.150" to="Edge.Main.EB.150-200" fromLane="1" toLane="1" tl="Cluster.150.Main" linkIndex="7"/>
    <connection from="Edge.MinorN.SB.150" to="Edge.MinorS.SB.150" fromLane="2" toLane="1" tl="Cluster.150.Main" linkIndex="8"/>
    <connection from="Edge.MinorN.SB.150" to="Edge.Main.WB.150-100" fromLane="3" toLane="1" tl="Cluster.150.Main" linkIndex="9"/>
    <connection from="Edge.Main.EB.100-150" to="Edge.MinorN.NB.150" fromLane="1" toLane="1" tl="Cluster.150.Main" linkIndex="10"/>
    <connection from="Edge.Main.EB.100-150" to="Edge.Main.EB.150-200" fromLane="2" toLane="1" tl="Cluster.150.Main" linkIndex="11"/>
    <connection from="Edge.Main.EB.100-150" to="Edge.MinorS.SB.150" fromLane="3" toLane="1" tl="Cluster.150.Main" linkIndex="12"/>
    <connection from="Edge.Main.EB.100-150" to="Edge.Main.WB.150-100" fromLane="3" toLane="1" tl="Cluster.150.Main" linkIndex="13"/>
</tlLogics>