<?xml version="1.0" encoding="UTF-8"?>

<!-- generated on 2025-11-02 08:34:09 by Eclipse SUMO netconvert Version 1.18.0
<configuration xmlns:xsi="http://www.w3.org/2001/XMLSchema-instance" xsi:noNamespaceSchemaLocation="http://sumo.dlr.de/xsd/netconvertConfiguration.xsd">

    <input>
        <node-files value="1-generated.nod.xml"/>
        <edge-files value="1-generated.edg.xml"/>
    </input>

    <output>
        <plain-output-prefix value="2-cooked"/>
    </output>

    <processing>
        <lefthand value="true"/>
    </processing>

    <junctions>
        <no-internal-links value="true"/>
    </junctions>

    <pedestrian>
        <sidewalks.guess value="true"/>
    </pedestrian>

</configuration>
-->

<tlLogics version="1.16" xmlns:xsi="http://www.w3.org/2001/XMLSchema-instance" xsi:noNamespaceSchemaLocation="http://sumo.dlr.de/xsd/tllogic_file.xsd">
    <tlLogic id="Cluster.225.Main" type="static" programID="0" offset="0">
        <phase duration="42" state="GGrrrGGG"/>
        <phase duration="3"  state="yyrrryyy"/>
        <phase duration="42" state="GGGGgGrr"/>
        <phase duration="3"  state="yyyyyyrr"/>
    </tlLogic>
    <tlLogic id="Cluster.75.Main" type="static" programID="0" offset="0">
        <phase duration="42" state="rrrGGGrrrGGG"/>
        <phase duration="3"  state="rrryyyrrryyy"/>
        <phase duration="42" state="GGgGrrGGgGrr"/>
        <phase duration="3"  state="yyyyrryyyyrr"/>
    </tlLogic>

    <connection from="Edge.Main.EB.180-225" to="Edge.MinorN.NB.225" fromLane="1" toLane="1" tl="Cluster.225.Main" linkIndex="5"/>
    <connection from="Edge.Main.EB.180-225" to="Edge.Main.EB.225-270" fromLane="2" toLane="1" tl="Cluster.225.Main" linkIndex="6"/>
    <connection from="Edge.Main.EB.180-225" to="Edge.Main.EB.225-270" fromLane="3" toLane="2" tl="Cluster.225.Main" linkIndex="7"/>
    <connection from="Edge.Main.EB.30-75" to="Edge.MinorN.NB.75" fromLane="1" toLane="1" tl="Cluster.75.Main" linkIndex="9"/>
    <connection from="Edge.Main.EB.30-75" to="Edge.Main.EB.75-120" fromLane="2" toLane="1" tl="Cluster.75.Main" linkIndex="10"/>
    <connection from="Edge.Main.EB.30-75" to="Edge.Main.EB.75-120" fromLane="3" toLane="2" tl="Cluster.75.Main" linkIndex="11"/>
    <connection from="Edge.Main.WB.120-75" to="Edge.MinorS.SB.75" fromLane="1" toLane="1" tl="Cluster.75.Main" linkIndex="3"/>
    <connection from="Edge.Main.WB.120-75" to="Edge.Main.WB.75-30" fromLane="2" toLane="1" tl="Cluster.75.Main" linkIndex="4"/>
    <connection from="Edge.Main.WB.120-75" to="Edge.Main.WB.75-30" fromLane="3" toLane="2" tl="Cluster.75.Main" linkIndex="5"/>
    <connection from="Edge.Main.WB.270-225" to="Edge.Main.WB.225-180" fromLane="1" toLane="1" tl="Cluster.225.Main" linkIndex="0"/>
    <connection from="Edge.Main.WB.270-225" to="Edge.Main.WB.225-180" fromLane="2" toLane="2" tl="Cluster.225.Main" linkIndex="1"/>
    <connection from="Edge.MinorN.SB.225" to="Edge.Main.EB.225-270" fromLane="1" toLane="1" tl="Cluster.225.Main" linkIndex="2"/>
    <connection from="Edge.MinorN.SB.225" to="Edge.Main.EB.225-270" fromLane="2" toLane="2" tl="Cluster.225.Main" linkIndex="3"/>
    <connection from="Edge.MinorN.SB.225" to="Edge.MinorN.NB.225" fromLane="2" toLane="1" tl="Cluster.225.Main" linkIndex="4"/>
    <connection from="Edge.MinorN.SB.75" to="Edge.Main.EB.75-120" fromLane="1" toLane="1" tl="Cluster.75.Main" linkIndex="6"/>
    <connection from="Edge.MinorN.SB.75" to="Edge.Main.EB.75-120" fromLane="2" toLane="2" tl="Cluster.75.Main" linkIndex="7"/>
    <connection from="Edge.MinorN.SB.75" to="Edge.MinorN.NB.75" fromLane="2" toLane="1" tl="Cluster.75.Main" linkIndex="8"/>
    <connection from="Edge.MinorS.NB.75" to="Edge.Main.WB.75-30" fromLane="1" toLane="1" tl="Cluster.75.Main" linkIndex="0"/>
    <connection from="Edge.MinorS.NB.75" to="Edge.Main.WB.75-30" fromLane="2" toLane="2" tl="Cluster.75.Main" linkIndex="1"/>
    <connection from="Edge.MinorS.NB.75" to="Edge.MinorS.SB.75" fromLane="2" toLane="1" tl="Cluster.75.Main" linkIndex="2"/>
</tlLogics>
