<?xml version="1.0" encoding="UTF-8"?>

<!-- generated on 2025-10-15 21:25:25 by Eclipse SUMO netedit Version 1.24.0
<neteditConfiguration xmlns:xsi="http://www.w3.org/2001/XMLSchema-instance" xsi:noNamespaceSchemaLocation="http://sumo.dlr.de/xsd/neteditConfiguration.xsd">

    <input>
        <node-files value="D:\Documents\codes\python\B4_crossing_optimise\sumo_optimise_x-ing\plainXML_out\1014_005_tll\1015.1.nod.xml"/>
        <edge-files value="D:\Documents\codes\python\B4_crossing_optimise\sumo_optimise_x-ing\plainXML_out\1014_005_tll\1015.1.edg.xml"/>
        <connection-files value="D:\Documents\codes\python\B4_crossing_optimise\sumo_optimise_x-ing\plainXML_out\1014_005_tll\1015.1.con.xml"/>
        <tllogic-files value="D:\Documents\codes\python\B4_crossing_optimise\sumo_optimise_x-ing\plainXML_out\1014_005_tll\1015.1.tll.xml"/>
    </input>

    <processing>
        <geometry.min-radius.fix.railways value="false"/>
        <geometry.avoid-overlap value="false"/>
        <geometry.max-grade.fix value="false"/>
        <offset.disable-normalization value="true"/>
        <lefthand value="1"/>
    </processing>

    <junctions>
        <no-internal-links value="false"/>
        <no-turnarounds value="true"/>
        <junctions.corner-detail value="5"/>
        <junctions.limit-turn-speed value="5.50"/>
        <rectangular-lane-cut value="0"/>
    </junctions>

    <pedestrian>
        <walkingareas value="0"/>
    </pedestrian>

</neteditConfiguration>
-->

<tlLogics version="1.20" xmlns:xsi="http://www.w3.org/2001/XMLSchema-instance" xsi:noNamespaceSchemaLocation="http://sumo.dlr.de/xsd/tllogic_file.xsd">
    <tlLogic id="Cluster.Main.100" type="static" programID="0" offset="0">
        <phase duration="25" state="rrrrgGGGrrrrrrgGGGrrGGrr"/>
        <phase duration="4"  state="rrrrgGGGrrrrrrgGGGrrrrrr"/>
        <phase duration="3"  state="rrrryyyyrrrrrryyyyrrrrrr"/>
        <phase duration="12" state="rrrrrrrrggrrrrrrrrggrrrr"/>
        <phase duration="3"  state="rrrrrrrryyrrrrrrrryyrrrr"/>
        <phase duration="3"  state="rrrrrrrrrrrrrrrrrrrrrrrr"/>
        <phase duration="20" state="gGGrrrrrrrgGGrrrrrrrrrGG"/>
        <phase duration="4"  state="gGGrrrrrrrgGGrrrrrrrrrGr"/>
        <phase duration="3"  state="yyyrrrrrrryyyrrrrrrrrrGr"/>
        <phase duration="3"  state="rrrgrrrrrrrrrgrrrrrrrrGr"/>
        <phase duration="4"  state="rrrgrrrrrrrrrgrrrrrrrrrr"/>
        <phase duration="3"  state="rrryrrrrrrrrryrrrrrrrrrr"/>
        <phase duration="3"  state="rrrrrrrrrrrrrrrrrrrrrrrr"/>
    </tlLogic>
    <tlLogic id="Cluster.Main.150" type="static" programID="0" offset="75">
        <phase duration="57" state="GGGGGGGGrr"/>
        <phase duration="3"  state="yyyyyyyyrr"/>
        <phase duration="30" state="rrrrrrrrGG"/>
    </tlLogic>
    <tlLogic id="Cluster.Main.200" type="static" programID="0" offset="45">
        <phase duration="21" state="rrrrrrGGGrrrrrrrrGGGrrGrG"/>
        <phase duration="5"  state="rrrrrrGGGrrrrrrrrGGGrrrrr"/>
        <phase duration="4"  state="rrrrrryyyrrrrrrrryyyrrrrr"/>
        <phase duration="11" state="grrrrrrrrgggrrrrrrrrggrrr"/>
        <phase duration="4"  state="yrrrrrrrryyyrrrrrrrryyrrr"/>
        <phase duration="21" state="rGGGrrrrrrrrGGGrrrrrrrrGr"/>
        <phase duration="5"  state="rGGGrrrrrrrrGGGrrrrrrrrrr"/>
        <phase duration="4"  state="ryyyrrrrrrrryyyrrrrrrrrrr"/>
        <phase duration="11" state="rrrrggrrrrrrrrrggrrrrrrrr"/>
        <phase duration="4"  state="rrrryyrrrrrrrrryyrrrrrrrr"/>
    </tlLogic>

    <connection from="Edge.Main.EB.100-150" to="Edge.Main.EB.150-200" fromLane="1" toLane="1" tl="Cluster.Main.150" linkIndex="4"/>
    <connection from="Edge.Main.EB.100-150" to="Edge.Main.EB.150-200" fromLane="2" toLane="2" tl="Cluster.Main.150" linkIndex="5"/>
    <connection from="Edge.Main.EB.100-150" to="Edge.Main.EB.150-200" fromLane="3" toLane="3" tl="Cluster.Main.150" linkIndex="6"/>
    <connection from="Edge.Main.EB.100-150" to="Edge.Main.EB.150-200" fromLane="3" toLane="4" tl="Cluster.Main.150" linkIndex="7"/>
    <connection from="Edge.Main.EB.150-200" to="Edge.Minor.200.from.N" fromLane="1" toLane="1" tl="Cluster.Main.200" linkIndex="16"/>
    <connection from="Edge.Main.EB.150-200" to="Edge.Main.EB.200-250" fromLane="1" toLane="1" tl="Cluster.Main.200" linkIndex="17"/>
    <connection from="Edge.Main.EB.150-200" to="Edge.Main.EB.200-250" fromLane="2" toLane="2" tl="Cluster.Main.200" linkIndex="18"/>
    <connection from="Edge.Main.EB.150-200" to="Edge.Main.EB.200-250" fromLane="3" toLane="3" tl="Cluster.Main.200" linkIndex="19"/>
    <connection from="Edge.Main.EB.150-200" to="Edge.Minor.200.from.S" fromLane="4" toLane="3" tl="Cluster.Main.200" linkIndex="20"/>
    <connection from="Edge.Main.EB.150-200" to="Edge.Main.WB.150-200" fromLane="4" toLane="3" tl="Cluster.Main.200" linkIndex="21"/>
    <connection from="Edge.Main.EB.50-100" to="Edge.Minor.100.from.N" fromLane="1" toLane="1" tl="Cluster.Main.100" linkIndex="14"/>
    <connection from="Edge.Main.EB.50-100" to="Edge.Main.EB.100-150" fromLane="1" toLane="1" tl="Cluster.Main.100" linkIndex="15"/>
    <connection from="Edge.Main.EB.50-100" to="Edge.Main.EB.100-150" fromLane="2" toLane="2" tl="Cluster.Main.100" linkIndex="16"/>
    <connection from="Edge.Main.EB.50-100" to="Edge.Main.EB.100-150" fromLane="3" toLane="3" tl="Cluster.Main.100" linkIndex="17"/>
    <connection from="Edge.Main.EB.50-100" to="Edge.Minor.100.from.S" fromLane="4" toLane="2" tl="Cluster.Main.100" linkIndex="18"/>
    <connection from="Edge.Main.EB.50-100" to="Edge.Main.WB.50-100" fromLane="4" toLane="3" tl="Cluster.Main.100" linkIndex="19"/>
    <connection from="Edge.Main.WB.100-150" to="Edge.Minor.100.from.S" fromLane="1" toLane="1" tl="Cluster.Main.100" linkIndex="4"/>
    <connection from="Edge.Main.WB.100-150" to="Edge.Main.WB.50-100" fromLane="1" toLane="1" tl="Cluster.Main.100" linkIndex="5"/>
    <connection from="Edge.Main.WB.100-150" to="Edge.Main.WB.50-100" fromLane="2" toLane="2" tl="Cluster.Main.100" linkIndex="6"/>
    <connection from="Edge.Main.WB.100-150" to="Edge.Main.WB.50-100" fromLane="3" toLane="3" tl="Cluster.Main.100" linkIndex="7"/>
    <connection from="Edge.Main.WB.100-150" to="Edge.Minor.100.from.N" fromLane="4" toLane="2" tl="Cluster.Main.100" linkIndex="8"/>
    <connection from="Edge.Main.WB.100-150" to="Edge.Main.EB.100-150" fromLane="4" toLane="3" tl="Cluster.Main.100" linkIndex="9"/>
    <connection from="Edge.Main.WB.150-200" to="Edge.Main.WB.100-150" fromLane="1" toLane="1" tl="Cluster.Main.150" linkIndex="0"/>
    <connection from="Edge.Main.WB.150-200" to="Edge.Main.WB.100-150" fromLane="2" toLane="2" tl="Cluster.Main.150" linkIndex="1"/>
    <connection from="Edge.Main.WB.150-200" to="Edge.Main.WB.100-150" fromLane="3" toLane="3" tl="Cluster.Main.150" linkIndex="2"/>
    <connection from="Edge.Main.WB.150-200" to="Edge.Main.WB.100-150" fromLane="3" toLane="4" tl="Cluster.Main.150" linkIndex="3"/>
    <connection from="Edge.Main.WB.200-250" to="Edge.Minor.200.from.S" fromLane="1" toLane="1" tl="Cluster.Main.200" linkIndex="5"/>
    <connection from="Edge.Main.WB.200-250" to="Edge.Main.WB.150-200" fromLane="1" toLane="1" tl="Cluster.Main.200" linkIndex="6"/>
    <connection from="Edge.Main.WB.200-250" to="Edge.Main.WB.150-200" fromLane="2" toLane="2" tl="Cluster.Main.200" linkIndex="7"/>
    <connection from="Edge.Main.WB.200-250" to="Edge.Main.WB.150-200" fromLane="3" toLane="3" tl="Cluster.Main.200" linkIndex="8"/>
    <connection from="Edge.Main.WB.200-250" to="Edge.Minor.200.from.N" fromLane="4" toLane="3" tl="Cluster.Main.200" linkIndex="9"/>
    <connection from="Edge.Main.WB.200-250" to="Edge.Main.EB.200-250" fromLane="4" toLane="3" tl="Cluster.Main.200" linkIndex="10"/>
    <connection from="Edge.Minor.100.to.N" to="Edge.Main.EB.100-150" fromLane="1" toLane="1" tl="Cluster.Main.100" linkIndex="10"/>
    <connection from="Edge.Minor.100.to.N" to="Edge.Minor.100.from.S" fromLane="2" toLane="1" tl="Cluster.Main.100" linkIndex="11"/>
    <connection from="Edge.Minor.100.to.N" to="Edge.Minor.100.from.S" fromLane="3" toLane="2" tl="Cluster.Main.100" linkIndex="12"/>
    <connection from="Edge.Minor.100.to.N" to="Edge.Main.WB.50-100" fromLane="4" toLane="3" tl="Cluster.Main.100" linkIndex="13"/>
    <connection from="Edge.Minor.100.to.S" to="Edge.Main.WB.50-100" fromLane="1" toLane="1" tl="Cluster.Main.100" linkIndex="0"/>
    <connection from="Edge.Minor.100.to.S" to="Edge.Minor.100.from.N" fromLane="2" toLane="1" tl="Cluster.Main.100" linkIndex="1"/>
    <connection from="Edge.Minor.100.to.S" to="Edge.Minor.100.from.N" fromLane="3" toLane="2" tl="Cluster.Main.100" linkIndex="2"/>
    <connection from="Edge.Minor.100.to.S" to="Edge.Main.EB.100-150" fromLane="4" toLane="3" tl="Cluster.Main.100" linkIndex="3"/>
    <connection from="Edge.Minor.200.to.N" to="Edge.Main.EB.200-250" fromLane="1" toLane="1" tl="Cluster.Main.200" linkIndex="11"/>
    <connection from="Edge.Minor.200.to.N" to="Edge.Minor.200.from.S" fromLane="1" toLane="1" tl="Cluster.Main.200" linkIndex="12"/>
    <connection from="Edge.Minor.200.to.N" to="Edge.Minor.200.from.S" fromLane="2" toLane="2" tl="Cluster.Main.200" linkIndex="13"/>
    <connection from="Edge.Minor.200.to.N" to="Edge.Minor.200.from.S" fromLane="3" toLane="3" tl="Cluster.Main.200" linkIndex="14"/>
    <connection from="Edge.Minor.200.to.N" to="Edge.Main.WB.150-200" fromLane="4" toLane="3" tl="Cluster.Main.200" linkIndex="15"/>
    <connection from="Edge.Minor.200.to.S" to="Edge.Main.WB.150-200" fromLane="1" toLane="1" tl="Cluster.Main.200" linkIndex="0"/>
    <connection from="Edge.Minor.200.to.S" to="Edge.Minor.200.from.N" fromLane="1" toLane="1" tl="Cluster.Main.200" linkIndex="1"/>
    <connection from="Edge.Minor.200.to.S" to="Edge.Minor.200.from.N" fromLane="2" toLane="2" tl="Cluster.Main.200" linkIndex="2"/>
    <connection from="Edge.Minor.200.to.S" to="Edge.Minor.200.from.N" fromLane="3" toLane="3" tl="Cluster.Main.200" linkIndex="3"/>
    <connection from="Edge.Minor.200.to.S" to="Edge.Main.EB.200-250" fromLane="4" toLane="3" tl="Cluster.Main.200" linkIndex="4"/>
</tlLogics>
