<?xml version="1.0" encoding="UTF-8"?>

<!-- generated on 2025-10-15 21:25:25 by Eclipse SUMO netedit Version 1.24.0
<neteditConfiguration xmlns:xsi="http://www.w3.org/2001/XMLSchema-instance" xsi:noNamespaceSchemaLocation="http://sumo.dlr.de/xsd/neteditConfiguration.xsd">

    <input>
        <node-files value="D:\Documents\codes\python\B4_crossing_optimise\sumo_optimise_x-ing\plainXML_out\1014_005_tll\1015.1.nod.xml"/>
        <edge-files value="D:\Documents\codes\python\B4_crossing_optimise\sumo_optimise_x-ing\plainXML_out\1014_005_tll\1015.1.edg.xml"/>
        <connection-files value="D:\Documents\codes\python\B4_crossing_optimise\sumo_optimise_x-ing\plainXML_out\1014_005_tll\1015.1.con.xml"/>
        <tllogic-files value="D:\Documents\codes\python\B4_crossing_optimise\sumo_optimise_x-ing\plainXML_out\1014_005_tll\1015.1.tll.xml"/>
    </input>

    <processing>
        <geometry.min-radius.fix.railways value="false"/>
        <geometry.avoid-overlap value="false"/>
        <geometry.max-grade.fix value="false"/>
        <offset.disable-normalization value="true"/>
        <lefthand value="1"/>
    </processing>

    <junctions>
        <no-internal-links value="false"/>
        <no-turnarounds value="true"/>
        <junctions.corner-detail value="5"/>
        <junctions.limit-turn-speed value="5.50"/>
        <rectangular-lane-cut value="0"/>
    </junctions>

    <pedestrian>
        <walkingareas value="0"/>
    </pedestrian>

</neteditConfiguration>
-->

<edges version="1.20" xmlns:xsi="http://www.w3.org/2001/XMLSchema-instance" xsi:noNamespaceSchemaLocation="http://sumo.dlr.de/xsd/edges_file.xsd">
    <edge id="Edge.Main.EB.0-50" from="Node.Main.EB.0" to="Cluster.Main.50" priority="-1" numLanes="4" speed="13.89" shape="0.00,73.00 50.00,73.00">
        <lane index="0" allow="pedestrian" width="2.00"/>
        <lane index="1" disallow="pedestrian"/>
        <lane index="2" disallow="pedestrian"/>
        <lane index="3" disallow="pedestrian"/>
    </edge>
    <edge id="Edge.Main.EB.100-150" from="Cluster.Main.100" to="Cluster.Main.150" priority="-1" numLanes="4" speed="13.89" shape="100.00,73.00 150.00,73.00">
        <lane index="0" allow="pedestrian" width="2.00"/>
        <lane index="1" disallow="pedestrian"/>
        <lane index="2" disallow="pedestrian"/>
        <lane index="3" disallow="pedestrian"/>
    </edge>
    <edge id="Edge.Main.EB.150-200" from="Cluster.Main.150" to="Cluster.Main.200" priority="-1" numLanes="5" speed="13.89" shape="150.00,73.00 200.00,73.00">
        <lane index="0" allow="pedestrian" width="2.00"/>
        <lane index="1" disallow="pedestrian"/>
        <lane index="2" disallow="pedestrian"/>
        <lane index="3" disallow="pedestrian"/>
        <lane index="4" disallow="pedestrian"/>
    </edge>
    <edge id="Edge.Main.EB.200-250" from="Cluster.Main.200" to="Cluster.Main.250" priority="-1" numLanes="4" speed="13.89" shape="200.00,73.00 250.00,73.00">
        <lane index="0" allow="pedestrian" width="2.00"/>
        <lane index="1" disallow="pedestrian"/>
        <lane index="2" disallow="pedestrian"/>
        <lane index="3" disallow="pedestrian"/>
    </edge>
    <edge id="Edge.Main.EB.250-300" from="Cluster.Main.250" to="Node.Main.EB.300" priority="-1" numLanes="4" speed="13.89" shape="250.00,73.00 300.00,73.00">
        <lane index="0" allow="pedestrian" width="2.00"/>
        <lane index="1" disallow="pedestrian"/>
        <lane index="2" disallow="pedestrian"/>
        <lane index="3" disallow="pedestrian"/>
    </edge>
    <edge id="Edge.Main.EB.50-100" from="Cluster.Main.50" to="Cluster.Main.100" priority="-1" numLanes="5" speed="13.89" shape="50.00,73.00 100.00,73.00">
        <lane index="0" allow="pedestrian" width="2.00"/>
        <lane index="1" disallow="pedestrian"/>
        <lane index="2" disallow="pedestrian"/>
        <lane index="3" disallow="pedestrian"/>
        <lane index="4" disallow="pedestrian"/>
    </edge>
    <edge id="Edge.Main.WB.0-50" from="Cluster.Main.50" to="Node.Main.WB.0" priority="-1" numLanes="4" speed="13.89" shape="50.00,67.00 0.00,67.00">
        <lane index="0" allow="pedestrian" width="2.00"/>
        <lane index="1" disallow="pedestrian"/>
        <lane index="2" disallow="pedestrian"/>
        <lane index="3" disallow="pedestrian"/>
    </edge>
    <edge id="Edge.Main.WB.100-150" from="Cluster.Main.150" to="Cluster.Main.100" priority="-1" numLanes="5" speed="13.89" shape="150.00,67.00 100.00,67.00">
        <lane index="0" allow="pedestrian" width="2.00"/>
        <lane index="1" disallow="pedestrian"/>
        <lane index="2" disallow="pedestrian"/>
        <lane index="3" disallow="pedestrian"/>
        <lane index="4" disallow="pedestrian"/>
    </edge>
    <edge id="Edge.Main.WB.150-200" from="Cluster.Main.200" to="Cluster.Main.150" priority="-1" numLanes="4" speed="13.89" shape="200.00,67.00 150.00,67.00">
        <lane index="0" allow="pedestrian" width="2.00"/>
        <lane index="1" disallow="pedestrian"/>
        <lane index="2" disallow="pedestrian"/>
        <lane index="3" disallow="pedestrian"/>
    </edge>
    <edge id="Edge.Main.WB.200-250" from="Cluster.Main.250" to="Cluster.Main.200" priority="-1" numLanes="5" speed="13.89" shape="250.00,67.00 200.00,67.00">
        <lane index="0" allow="pedestrian" width="2.00"/>
        <lane index="1" disallow="pedestrian"/>
        <lane index="2" disallow="pedestrian"/>
        <lane index="3" disallow="pedestrian"/>
        <lane index="4" disallow="pedestrian"/>
    </edge>
    <edge id="Edge.Main.WB.250-300" from="Node.Main.WB.300" to="Cluster.Main.250" priority="-1" numLanes="4" speed="13.89" shape="300.00,67.00 250.00,67.00">
        <lane index="0" allow="pedestrian" width="2.00"/>
        <lane index="1" disallow="pedestrian"/>
        <lane index="2" disallow="pedestrian"/>
        <lane index="3" disallow="pedestrian"/>
    </edge>
    <edge id="Edge.Main.WB.50-100" from="Cluster.Main.100" to="Cluster.Main.50" priority="-1" numLanes="4" speed="13.89" shape="100.00,67.00 50.00,67.00">
        <lane index="0" allow="pedestrian" width="2.00"/>
        <lane index="1" disallow="pedestrian"/>
        <lane index="2" disallow="pedestrian"/>
        <lane index="3" disallow="pedestrian"/>
    </edge>
    <edge id="Edge.Minor.100.from.N" from="Cluster.Main.100" to="Node.Minor.100.N-End" priority="-1" numLanes="3" speed="13.89" shape="100.00,73.00 100.00,140.00">
        <lane index="0" allow="pedestrian" width="2.00"/>
        <lane index="1" disallow="pedestrian"/>
        <lane index="2" disallow="pedestrian"/>
    </edge>
    <edge id="Edge.Minor.100.from.S" from="Cluster.Main.100" to="Node.Minor.100.S-End" priority="-1" numLanes="3" speed="13.89" shape="100.00,67.00 100.00,0.00">
        <lane index="0" allow="pedestrian" width="2.00"/>
        <lane index="1" disallow="pedestrian"/>
        <lane index="2" disallow="pedestrian"/>
    </edge>
    <edge id="Edge.Minor.100.to.N" from="Node.Minor.100.N-End" to="Cluster.Main.100" priority="-1" numLanes="5" speed="13.89" shape="100.00,140.00 100.00,73.00">
        <lane index="0" allow="pedestrian" width="2.00"/>
        <lane index="1" disallow="pedestrian"/>
        <lane index="2" disallow="pedestrian"/>
        <lane index="3" disallow="pedestrian"/>
        <lane index="4" disallow="pedestrian"/>
    </edge>
    <edge id="Edge.Minor.100.to.S" from="Node.Minor.100.S-End" to="Cluster.Main.100" priority="-1" numLanes="5" speed="13.89" shape="100.00,0.00 100.00,67.00">
        <lane index="0" allow="pedestrian" width="2.00"/>
        <lane index="1" disallow="pedestrian"/>
        <lane index="2" disallow="pedestrian"/>
        <lane index="3" disallow="pedestrian"/>
        <lane index="4" disallow="pedestrian"/>
    </edge>
    <edge id="Edge.Minor.200.from.N" from="Cluster.Main.200" to="Node.Minor.200.N-End" priority="-1" numLanes="4" speed="13.89" shape="200.00,73.00 200.00,140.00">
        <lane index="0" allow="pedestrian" width="2.00"/>
        <lane index="1" disallow="pedestrian"/>
        <lane index="2" disallow="pedestrian"/>
        <lane index="3" disallow="pedestrian"/>
    </edge>
    <edge id="Edge.Minor.200.from.S" from="Cluster.Main.200" to="Node.Minor.200.S-End" priority="-1" numLanes="4" speed="13.89" shape="200.00,67.00 200.00,0.00">
        <lane index="0" allow="pedestrian" width="2.00"/>
        <lane index="1" disallow="pedestrian"/>
        <lane index="2" disallow="pedestrian"/>
        <lane index="3" disallow="pedestrian"/>
    </edge>
    <edge id="Edge.Minor.200.to.N" from="Node.Minor.200.N-End" to="Cluster.Main.200" priority="-1" numLanes="5" speed="13.89" shape="200.00,140.00 200.00,73.00">
        <lane index="0" allow="pedestrian" width="2.00"/>
        <lane index="1" disallow="pedestrian"/>
        <lane index="2" disallow="pedestrian"/>
        <lane index="3" disallow="pedestrian"/>
        <lane index="4" disallow="pedestrian"/>
    </edge>
    <edge id="Edge.Minor.200.to.S" from="Node.Minor.200.S-End" to="Cluster.Main.200" priority="-1" numLanes="5" speed="13.89" shape="200.00,0.00 200.00,67.00">
        <lane index="0" allow="pedestrian" width="2.00"/>
        <lane index="1" disallow="pedestrian"/>
        <lane index="2" disallow="pedestrian"/>
        <lane index="3" disallow="pedestrian"/>
        <lane index="4" disallow="pedestrian"/>
    </edge>
</edges>
