<?xml version="1.0" encoding="UTF-8"?>

<!-- generated on 2025-10-15 21:25:25 by Eclipse SUMO netedit Version 1.24.0
<neteditConfiguration xmlns:xsi="http://www.w3.org/2001/XMLSchema-instance" xsi:noNamespaceSchemaLocation="http://sumo.dlr.de/xsd/neteditConfiguration.xsd">

    <input>
        <node-files value="D:\Documents\codes\python\B4_crossing_optimise\sumo_optimise_x-ing\plainXML_out\1014_005_tll\1015.1.nod.xml"/>
        <edge-files value="D:\Documents\codes\python\B4_crossing_optimise\sumo_optimise_x-ing\plainXML_out\1014_005_tll\1015.1.edg.xml"/>
        <connection-files value="D:\Documents\codes\python\B4_crossing_optimise\sumo_optimise_x-ing\plainXML_out\1014_005_tll\1015.1.con.xml"/>
        <tllogic-files value="D:\Documents\codes\python\B4_crossing_optimise\sumo_optimise_x-ing\plainXML_out\1014_005_tll\1015.1.tll.xml"/>
    </input>

    <processing>
        <geometry.min-radius.fix.railways value="false"/>
        <geometry.avoid-overlap value="false"/>
        <geometry.max-grade.fix value="false"/>
        <offset.disable-normalization value="true"/>
        <lefthand value="1"/>
    </processing>

    <junctions>
        <no-internal-links value="false"/>
        <no-turnarounds value="true"/>
        <junctions.corner-detail value="5"/>
        <junctions.limit-turn-speed value="5.50"/>
        <rectangular-lane-cut value="0"/>
    </junctions>

    <pedestrian>
        <walkingareas value="0"/>
    </pedestrian>

</neteditConfiguration>
-->

<connections version="1.20" xmlns:xsi="http://www.w3.org/2001/XMLSchema-instance" xsi:noNamespaceSchemaLocation="http://sumo.dlr.de/xsd/connections_file.xsd">
    <connection from="Edge.Main.EB.0-50" to="Edge.Main.EB.50-100" fromLane="1" toLane="1"/>
    <connection from="Edge.Main.EB.0-50" to="Edge.Main.EB.50-100" fromLane="2" toLane="2"/>
    <connection from="Edge.Main.EB.0-50" to="Edge.Main.EB.50-100" fromLane="3" toLane="3"/>
    <connection from="Edge.Main.EB.0-50" to="Edge.Main.EB.50-100" fromLane="3" toLane="4"/>

    <connection from="Edge.Main.EB.100-150" to="Edge.Main.EB.150-200" fromLane="1" toLane="1"/>
    <connection from="Edge.Main.EB.100-150" to="Edge.Main.EB.150-200" fromLane="2" toLane="2"/>
    <connection from="Edge.Main.EB.100-150" to="Edge.Main.EB.150-200" fromLane="3" toLane="3"/>
    <connection from="Edge.Main.EB.100-150" to="Edge.Main.EB.150-200" fromLane="3" toLane="4"/>

    <connection from="Edge.Main.EB.150-200" to="Edge.Minor.200.from.N" fromLane="1" toLane="1"/>
    <connection from="Edge.Main.EB.150-200" to="Edge.Main.EB.200-250" fromLane="1" toLane="1"/>
    <connection from="Edge.Main.EB.150-200" to="Edge.Main.EB.200-250" fromLane="2" toLane="2"/>
    <connection from="Edge.Main.EB.150-200" to="Edge.Main.EB.200-250" fromLane="3" toLane="3"/>
    <connection from="Edge.Main.EB.150-200" to="Edge.Minor.200.from.S" fromLane="4" toLane="3"/>
    <connection from="Edge.Main.EB.150-200" to="Edge.Main.WB.150-200" fromLane="4" toLane="3"/>

    <connection from="Edge.Main.EB.200-250" to="Edge.Main.EB.250-300" fromLane="1" toLane="1"/>
    <connection from="Edge.Main.EB.200-250" to="Edge.Main.EB.250-300" fromLane="2" toLane="2"/>
    <connection from="Edge.Main.EB.200-250" to="Edge.Main.EB.250-300" fromLane="3" toLane="3"/>

    <connection from="Edge.Main.EB.50-100" to="Edge.Minor.100.from.N" fromLane="1" toLane="1"/>
    <connection from="Edge.Main.EB.50-100" to="Edge.Main.EB.100-150" fromLane="1" toLane="1"/>
    <connection from="Edge.Main.EB.50-100" to="Edge.Main.EB.100-150" fromLane="2" toLane="2"/>
    <connection from="Edge.Main.EB.50-100" to="Edge.Main.EB.100-150" fromLane="3" toLane="3"/>
    <connection from="Edge.Main.EB.50-100" to="Edge.Minor.100.from.S" fromLane="4" toLane="2"/>
    <connection from="Edge.Main.EB.50-100" to="Edge.Main.WB.50-100" fromLane="4" toLane="3"/>

    <connection from="Edge.Main.WB.100-150" to="Edge.Minor.100.from.S" fromLane="1" toLane="1"/>
    <connection from="Edge.Main.WB.100-150" to="Edge.Main.WB.50-100" fromLane="1" toLane="1"/>
    <connection from="Edge.Main.WB.100-150" to="Edge.Main.WB.50-100" fromLane="2" toLane="2"/>
    <connection from="Edge.Main.WB.100-150" to="Edge.Main.WB.50-100" fromLane="3" toLane="3"/>
    <connection from="Edge.Main.WB.100-150" to="Edge.Minor.100.from.N" fromLane="4" toLane="2"/>
    <connection from="Edge.Main.WB.100-150" to="Edge.Main.EB.100-150" fromLane="4" toLane="3"/>

    <connection from="Edge.Main.WB.150-200" to="Edge.Main.WB.100-150" fromLane="1" toLane="1"/>
    <connection from="Edge.Main.WB.150-200" to="Edge.Main.WB.100-150" fromLane="2" toLane="2"/>
    <connection from="Edge.Main.WB.150-200" to="Edge.Main.WB.100-150" fromLane="3" toLane="3"/>
    <connection from="Edge.Main.WB.150-200" to="Edge.Main.WB.100-150" fromLane="3" toLane="4"/>

    <connection from="Edge.Main.WB.200-250" to="Edge.Minor.200.from.S" fromLane="1" toLane="1"/>
    <connection from="Edge.Main.WB.200-250" to="Edge.Main.WB.150-200" fromLane="1" toLane="1"/>
    <connection from="Edge.Main.WB.200-250" to="Edge.Main.WB.150-200" fromLane="2" toLane="2"/>
    <connection from="Edge.Main.WB.200-250" to="Edge.Main.WB.150-200" fromLane="3" toLane="3"/>
    <connection from="Edge.Main.WB.200-250" to="Edge.Minor.200.from.N" fromLane="4" toLane="3"/>
    <connection from="Edge.Main.WB.200-250" to="Edge.Main.EB.200-250" fromLane="4" toLane="3"/>

    <connection from="Edge.Main.WB.250-300" to="Edge.Main.WB.200-250" fromLane="1" toLane="1"/>
    <connection from="Edge.Main.WB.250-300" to="Edge.Main.WB.200-250" fromLane="2" toLane="2"/>
    <connection from="Edge.Main.WB.250-300" to="Edge.Main.WB.200-250" fromLane="3" toLane="3"/>
    <connection from="Edge.Main.WB.250-300" to="Edge.Main.WB.200-250" fromLane="3" toLane="4"/>

    <connection from="Edge.Main.WB.50-100" to="Edge.Main.WB.0-50" fromLane="1" toLane="1"/>
    <connection from="Edge.Main.WB.50-100" to="Edge.Main.WB.0-50" fromLane="2" toLane="2"/>
    <connection from="Edge.Main.WB.50-100" to="Edge.Main.WB.0-50" fromLane="3" toLane="3"/>

    <connection from="Edge.Minor.100.from.N" to="Edge.Minor.100.to.N" fromLane="2" toLane="4"/>

    <connection from="Edge.Minor.100.from.S" to="Edge.Minor.100.to.S" fromLane="2" toLane="4"/>

    <connection from="Edge.Minor.100.to.N" to="Edge.Main.EB.100-150" fromLane="1" toLane="1"/>
    <connection from="Edge.Minor.100.to.N" to="Edge.Minor.100.from.S" fromLane="2" toLane="1"/>
    <connection from="Edge.Minor.100.to.N" to="Edge.Minor.100.from.S" fromLane="3" toLane="2"/>
    <connection from="Edge.Minor.100.to.N" to="Edge.Main.WB.50-100" fromLane="4" toLane="3"/>

    <connection from="Edge.Minor.100.to.S" to="Edge.Main.WB.50-100" fromLane="1" toLane="1"/>
    <connection from="Edge.Minor.100.to.S" to="Edge.Minor.100.from.N" fromLane="2" toLane="1"/>
    <connection from="Edge.Minor.100.to.S" to="Edge.Minor.100.from.N" fromLane="3" toLane="2"/>
    <connection from="Edge.Minor.100.to.S" to="Edge.Main.EB.100-150" fromLane="4" toLane="3"/>

    <connection from="Edge.Minor.200.from.N" to="Edge.Minor.200.to.N" fromLane="3" toLane="4"/>

    <connection from="Edge.Minor.200.from.S" to="Edge.Minor.200.to.S" fromLane="3" toLane="4"/>

    <connection from="Edge.Minor.200.to.N" to="Edge.Main.EB.200-250" fromLane="1" toLane="1"/>
    <connection from="Edge.Minor.200.to.N" to="Edge.Minor.200.from.S" fromLane="1" toLane="1"/>
    <connection from="Edge.Minor.200.to.N" to="Edge.Minor.200.from.S" fromLane="2" toLane="2"/>
    <connection from="Edge.Minor.200.to.N" to="Edge.Minor.200.from.S" fromLane="3" toLane="3"/>
    <connection from="Edge.Minor.200.to.N" to="Edge.Main.WB.150-200" fromLane="4" toLane="3"/>

    <connection from="Edge.Minor.200.to.S" to="Edge.Main.WB.150-200" fromLane="1" toLane="1"/>
    <connection from="Edge.Minor.200.to.S" to="Edge.Minor.200.from.N" fromLane="1" toLane="1"/>
    <connection from="Edge.Minor.200.to.S" to="Edge.Minor.200.from.N" fromLane="2" toLane="2"/>
    <connection from="Edge.Minor.200.to.S" to="Edge.Minor.200.from.N" fromLane="3" toLane="3"/>
    <connection from="Edge.Minor.200.to.S" to="Edge.Main.EB.200-250" fromLane="4" toLane="3"/>

    <crossing node="Cluster.Main.100" edges="Edge.Minor.100.from.S Edge.Minor.100.to.S" priority="0" width="3.50" outlineShape="106.50,-50.20 87.10,-50.20 87.09,-52.40 86.85,-53.70 87.20,-53.70 106.40,-53.70 108.55,-52.96 107.56,-52.42 106.69,-51.42"/>
    <crossing node="Cluster.Main.100" edges="Edge.Minor.100.from.N Edge.Minor.100.to.N" priority="0" width="3.50" outlineShape="93.50,-89.80 112.90,-89.80 112.91,-87.60 113.15,-86.30 112.80,-86.30 93.60,-86.30 91.45,-87.04 92.44,-87.58 93.31,-88.58"/>
    <crossing node="Cluster.Main.100" edges="Edge.Main.EB.50-100" priority="0" width="3.50" outlineShape="83.20,-72.90 83.20,-85.90 86.38,-85.91 86.70,-85.95 86.70,-73.00 83.20,-73.00 86.70,-73.00"/>
    <crossing node="Cluster.Main.100" edges="Edge.Main.WB.50-100" priority="0" width="3.50" outlineShape="83.20,-57.40 83.20,-67.10 86.70,-67.00 83.20,-67.00 86.70,-67.00 86.70,-54.34 86.20,-55.60 85.42,-56.60 84.42,-57.20"/>
    <crossing node="Cluster.Main.150" edges="Edge.Main.EB.100-150" priority="0" width="3.50" outlineShape="146.00,-72.90 146.00,-82.70 147.79,-82.84 149.03,-83.43 149.50,-83.80 149.50,-73.00 146.00,-73.00 149.50,-73.00"/>
    <crossing node="Cluster.Main.150" edges="Edge.Main.WB.100-150" priority="0" width="3.50" outlineShape="146.00,-54.20 146.00,-67.10 149.50,-67.00 146.00,-67.00 149.50,-67.00 149.50,-55.40 149.03,-55.03 147.79,-54.44"/>
    <crossing node="Cluster.Main.200" edges="Edge.Minor.200.from.S Edge.Minor.200.to.S" priority="0" width="3.50" outlineShape="209.70,-50.20 187.10,-50.20 187.09,-52.40 186.85,-53.70 212.66,-53.70 211.40,-53.20 210.40,-52.42 209.80,-51.42"/>
    <crossing node="Cluster.Main.200" edges="Edge.Main.EB.200-250 Edge.Main.WB.200-250" priority="0" width="3.50" outlineShape="216.80,-82.70 216.80,-54.20 214.60,-54.09 213.30,-53.85 213.30,-85.66 213.80,-84.40 214.58,-83.40 215.58,-82.80"/>
    <crossing node="Cluster.Main.200" edges="Edge.Minor.200.from.N Edge.Minor.200.to.N" priority="0" width="3.50" outlineShape="190.30,-89.80 212.90,-89.80 212.91,-87.60 213.15,-86.30 187.34,-86.30 188.60,-86.80 189.60,-87.58 190.20,-88.58"/>
</connections>
