<?xml version="1.0" encoding="UTF-8"?>

<!-- generated on 2025-10-16 15:20:59 by Eclipse SUMO netedit Version 1.24.0
<neteditConfiguration xmlns:xsi="http://www.w3.org/2001/XMLSchema-instance" xsi:noNamespaceSchemaLocation="http://sumo.dlr.de/xsd/neteditConfiguration.xsd">

    <input>
        <sumo-net-file value="C:\Users\user_name\Documents\Codes\Python\sumo_optimise_x-ing\plainXML_out\1016_007\network.net.xml"/>
    </input>

    <processing>
        <geometry.min-radius.fix.railways value="false"/>
        <geometry.avoid-overlap value="false"/>
        <geometry.max-grade.fix value="false"/>
        <offset.disable-normalization value="true"/>
        <lefthand value="1"/>
    </processing>

    <junctions>
        <no-internal-links value="false"/>
        <no-turnarounds value="true"/>
        <junctions.corner-detail value="5"/>
        <junctions.limit-turn-speed value="5.50"/>
        <rectangular-lane-cut value="0"/>
    </junctions>

    <pedestrian>
        <walkingareas value="0"/>
    </pedestrian>

</neteditConfiguration>
-->

<connections version="1.20" xmlns:xsi="http://www.w3.org/2001/XMLSchema-instance" xsi:noNamespaceSchemaLocation="http://sumo.dlr.de/xsd/connections_file.xsd">
    <connection from="Edge.Main.EB.0-50" to="Edge.Main.EB.50-100" fromLane="1" toLane="1"/>
    <connection from="Edge.Main.EB.0-50" to="Edge.Main.EB.50-100" fromLane="2" toLane="2"/>
    <connection from="Edge.Main.EB.0-50" to="Edge.Main.EB.50-100" fromLane="3" toLane="3"/>
    <connection from="Edge.Main.EB.0-50" to="Edge.Main.EB.50-100" fromLane="3" toLane="4"/>

    <connection from="Edge.Main.EB.100-150" to="Edge.Main.EB.150-200" fromLane="1" toLane="1"/>
    <connection from="Edge.Main.EB.100-150" to="Edge.Main.EB.150-200" fromLane="2" toLane="2"/>
    <connection from="Edge.Main.EB.100-150" to="Edge.Main.EB.150-200" fromLane="3" toLane="3"/>
    <connection from="Edge.Main.EB.100-150" to="Edge.Main.EB.150-200" fromLane="3" toLane="4"/>

    <connection from="Edge.Main.EB.150-200" to="Edge.Main.EB.200-250" fromLane="1" toLane="1"/>
    <connection from="Edge.Main.EB.150-200" to="Edge.Main.EB.200-250" fromLane="2" toLane="2"/>
    <connection from="Edge.Main.EB.150-200" to="Edge.Main.EB.200-250" fromLane="3" toLane="3"/>
    <connection from="Edge.Main.EB.150-200" to="Edge.Minor.200.from.S" fromLane="4" toLane="3"/>
    <connection from="Edge.Main.EB.150-200" to="Edge.Main.WB.150-200" fromLane="4" toLane="3"/>

    <connection from="Edge.Main.EB.200-250" to="Edge.Main.EB.250-300" fromLane="1" toLane="1"/>
    <connection from="Edge.Main.EB.200-250" to="Edge.Main.EB.250-300" fromLane="2" toLane="2"/>
    <connection from="Edge.Main.EB.200-250" to="Edge.Main.EB.250-300" fromLane="3" toLane="3"/>

    <connection from="Edge.Main.EB.50-100" to="Edge.Minor.100.from.N" fromLane="1" toLane="1"/>
    <connection from="Edge.Main.EB.50-100" to="Edge.Main.EB.100-150" fromLane="2" toLane="1"/>
    <connection from="Edge.Main.EB.50-100" to="Edge.Main.EB.100-150" fromLane="3" toLane="2"/>
    <connection from="Edge.Main.EB.50-100" to="Edge.Main.EB.100-150" fromLane="4" toLane="3"/>
    <connection from="Edge.Main.EB.50-100" to="Edge.Main.WB.50-100" fromLane="4" toLane="3"/>

    <connection from="Edge.Main.WB.100-150" to="Edge.Main.WB.50-100" fromLane="1" toLane="1"/>
    <connection from="Edge.Main.WB.100-150" to="Edge.Main.WB.50-100" fromLane="2" toLane="2"/>
    <connection from="Edge.Main.WB.100-150" to="Edge.Main.WB.50-100" fromLane="3" toLane="3"/>
    <connection from="Edge.Main.WB.100-150" to="Edge.Minor.100.from.N" fromLane="4" toLane="2"/>
    <connection from="Edge.Main.WB.100-150" to="Edge.Main.EB.100-150" fromLane="4" toLane="3"/>

    <connection from="Edge.Main.WB.150-200" to="Edge.Main.WB.100-150" fromLane="1" toLane="1"/>
    <connection from="Edge.Main.WB.150-200" to="Edge.Main.WB.100-150" fromLane="2" toLane="2"/>
    <connection from="Edge.Main.WB.150-200" to="Edge.Main.WB.100-150" fromLane="3" toLane="3"/>
    <connection from="Edge.Main.WB.150-200" to="Edge.Main.WB.100-150" fromLane="3" toLane="4"/>

    <connection from="Edge.Main.WB.200-250" to="Edge.Minor.200.from.S" fromLane="1" toLane="1"/>
    <connection from="Edge.Main.WB.200-250" to="Edge.Main.WB.150-200" fromLane="2" toLane="1"/>
    <connection from="Edge.Main.WB.200-250" to="Edge.Main.WB.150-200" fromLane="3" toLane="2"/>
    <connection from="Edge.Main.WB.200-250" to="Edge.Main.WB.150-200" fromLane="4" toLane="3"/>
    <connection from="Edge.Main.WB.200-250" to="Edge.Main.EB.200-250" fromLane="4" toLane="3"/>

    <connection from="Edge.Main.WB.250-300" to="Edge.Main.WB.200-250" fromLane="1" toLane="1"/>
    <connection from="Edge.Main.WB.250-300" to="Edge.Main.WB.200-250" fromLane="2" toLane="2"/>
    <connection from="Edge.Main.WB.250-300" to="Edge.Main.WB.200-250" fromLane="3" toLane="3"/>
    <connection from="Edge.Main.WB.250-300" to="Edge.Main.WB.200-250" fromLane="3" toLane="4"/>

    <connection from="Edge.Main.WB.50-100" to="Edge.Main.WB.0-50" fromLane="1" toLane="1"/>
    <connection from="Edge.Main.WB.50-100" to="Edge.Main.WB.0-50" fromLane="2" toLane="2"/>
    <connection from="Edge.Main.WB.50-100" to="Edge.Main.WB.0-50" fromLane="3" toLane="3"/>

    <connection from="Edge.Minor.100.from.N" to="Edge.Minor.100.to.N" fromLane="2" toLane="4"/>

    <connection from="Edge.Minor.100.to.N" to="Edge.Main.EB.100-150" fromLane="1" toLane="1"/>
    <connection from="Edge.Minor.100.to.N" to="Edge.Main.EB.100-150" fromLane="2" toLane="2"/>
    <connection from="Edge.Minor.100.to.N" to="Edge.Main.WB.50-100" fromLane="3" toLane="2"/>
    <connection from="Edge.Minor.100.to.N" to="Edge.Main.WB.50-100" fromLane="4" toLane="3"/>

    <connection from="Edge.Minor.200.from.S" to="Edge.Minor.200.to.S" fromLane="3" toLane="4"/>

    <connection from="Edge.Minor.200.to.S" to="Edge.Main.WB.150-200" fromLane="1" toLane="1"/>
    <connection from="Edge.Minor.200.to.S" to="Edge.Main.WB.150-200" fromLane="2" toLane="2"/>
    <connection from="Edge.Minor.200.to.S" to="Edge.Main.EB.200-250" fromLane="3" toLane="2"/>
    <connection from="Edge.Minor.200.to.S" to="Edge.Main.EB.200-250" fromLane="4" toLane="3"/>

    <crossing node="Cluster.Main.100" edges="Edge.Main.WB.100-150" priority="1" width="3.50" linkIndex="14" outlineShape="116.80,-67.10 116.80,-54.20 113.30,-54.34 113.30,-67.00 116.80,-67.00 113.30,-67.00"/>
    <crossing node="Cluster.Main.100" edges="Edge.Main.EB.100-150" priority="1" width="3.50" linkIndex="15" outlineShape="116.80,-82.70 116.80,-72.90 113.30,-73.00 116.80,-73.00 113.30,-73.00 113.30,-85.66 113.80,-84.40 114.58,-83.40 115.58,-82.80"/>
    <crossing node="Cluster.Main.100" edges="Edge.Minor.100.from.N Edge.Minor.100.to.N" priority="1" width="3.50" linkIndex="16" outlineShape="93.50,-89.80 112.90,-89.80 112.91,-87.60 113.15,-86.30 91.90,-86.30 92.60,-86.80 93.16,-87.58 93.49,-88.58"/>
    <crossing node="Cluster.Main.100" edges="Edge.Main.EB.50-100" priority="1" width="3.50" linkIndex="17" outlineShape="89.60,-72.90 89.60,-85.90 90.82,-85.91 91.82,-86.24 92.60,-86.80 93.10,-87.50 93.10,-73.00 89.60,-73.00 93.10,-73.00"/>
    <crossing node="Cluster.Main.100" edges="Edge.Main.WB.50-100" priority="1" width="3.50" linkIndex="18" outlineShape="89.60,-57.40 89.60,-67.10 93.10,-67.00 89.60,-67.00 93.10,-67.00 93.10,-57.26"/>
    <crossing node="Cluster.Main.150" edges="Edge.Main.EB.100-150" priority="0" width="3.50" outlineShape="146.00,-72.90 146.00,-82.70 147.79,-82.84 149.03,-83.43 149.50,-83.80 149.50,-73.00 146.00,-73.00 149.50,-73.00"/>
    <crossing node="Cluster.Main.150" edges="Edge.Main.WB.100-150" priority="0" width="3.50" outlineShape="146.00,-54.20 146.00,-67.10 149.50,-67.00 146.00,-67.00 149.50,-67.00 149.50,-55.40 149.03,-55.03 147.79,-54.44"/>
    <crossing node="Cluster.Main.200" edges="Edge.Minor.200.from.S Edge.Minor.200.to.S" priority="1" width="3.50" linkIndex="14" outlineShape="209.70,-50.20 187.10,-50.20 187.09,-52.40 186.85,-53.70 211.30,-53.70 210.60,-53.20 210.04,-52.42 209.71,-51.42"/>
    <crossing node="Cluster.Main.200" edges="Edge.Main.WB.200-250" priority="1" width="3.50" linkIndex="15" outlineShape="213.60,-67.10 213.60,-54.20 212.38,-54.09 211.38,-53.76 210.60,-53.20 210.10,-52.50 210.10,-67.00 213.60,-67.00 210.10,-67.00"/>
    <crossing node="Cluster.Main.200" edges="Edge.Main.EB.200-250" priority="1" width="3.50" linkIndex="16" outlineShape="213.60,-82.70 213.60,-72.90 210.10,-73.00 213.60,-73.00 210.10,-73.00 210.10,-82.73"/>
    <crossing node="Cluster.Main.200" edges="Edge.Main.EB.150-200" priority="1" width="3.50" linkIndex="17" outlineShape="183.20,-72.90 183.20,-85.90 186.70,-85.67 186.70,-73.00 183.20,-73.00 186.70,-73.00"/>
    <crossing node="Cluster.Main.200" edges="Edge.Main.WB.150-200" priority="1" width="3.50" linkIndex="18" outlineShape="183.20,-57.40 183.20,-67.10 186.70,-67.00 183.20,-67.00 186.70,-67.00 186.70,-54.34 186.20,-55.60 185.42,-56.60 184.42,-57.20"/>
</connections>
