<?xml version="1.0" encoding="UTF-8"?>

<!-- generated on 2025-12-04T20:39:24.949890+09:00 by Eclipse SUMO netconvert 1.25.0
<netconvertConfiguration xmlns:xsi="http://www.w3.org/2001/XMLSchema-instance" xsi:noNamespaceSchemaLocation="http://sumo.dlr.de/xsd/netconvertConfiguration.xsd">

    <input>
        <node-files value="2-cooked.nod.xml"/>
        <edge-files value="2-cooked.edg.xml"/>
        <connection-files value="1-generated.con.xml"/>
        <tllogic-files value="1-generated.tll.xml"/>
    </input>

    <output>
        <output-file value="3-assembled.net.xml"/>
    </output>

    <processing>
        <lefthand value="true"/>
    </processing>

    <junctions>
        <no-turnarounds.fringe value="true"/>
    </junctions>

</netconvertConfiguration>
-->

<net version="1.20" junctionCornerDetail="5" lefthand="true" limitTurnSpeed="5.50" xmlns:xsi="http://www.w3.org/2001/XMLSchema-instance" xsi:noNamespaceSchemaLocation="http://sumo.dlr.de/xsd/net_file.xsd">

    <location netOffset="0.00,200.00" convBoundary="0.00,-0.00,740.00,400.00" origBoundary="0.00,-200.00,740.00,200.00" projParameter="!"/>

    <edge id=":Cluster.120_0" function="internal">
        <lane id=":Cluster.120_0_0" index="0" disallow="pedestrian" speed="16.67" length="16.00" shape="128.00,190.50 112.00,190.50"/>
        <lane id=":Cluster.120_0_1" index="1" disallow="pedestrian" speed="16.67" length="16.00" shape="128.00,193.70 112.00,193.70"/>
        <lane id=":Cluster.120_0_2" index="2" disallow="pedestrian" speed="16.67" length="16.00" shape="128.00,196.90 112.00,196.90"/>
    </edge>
    <edge id=":Cluster.120_3" function="internal">
        <lane id=":Cluster.120_3_0" index="0" disallow="pedestrian" speed="16.67" length="16.31" shape="112.00,209.50 116.79,210.00 120.00,211.10 123.21,212.20 128.00,212.70"/>
        <lane id=":Cluster.120_3_1" index="1" disallow="pedestrian" speed="16.67" length="16.31" shape="112.00,206.30 116.79,206.80 120.00,207.90 123.21,209.00 128.00,209.50"/>
        <lane id=":Cluster.120_3_2" index="2" disallow="pedestrian" speed="16.67" length="16.31" shape="112.00,203.10 116.79,203.60 120.00,204.70 123.21,205.80 128.00,206.30"/>
        <lane id=":Cluster.120_3_3" index="3" disallow="pedestrian" speed="16.67" length="16.31" shape="112.00,203.10 128.00,203.10"/>
    </edge>
    <edge id=":Cluster.120_w0" function="walkingarea">
        <lane id=":Cluster.120_w0_0" index="0" allow="pedestrian" speed="2.78" length="16.00" width="3.00" shape="112.00,188.90 112.00,185.90 128.00,185.90 128.00,188.90"/>
    </edge>
    <edge id=":Cluster.120_w1" function="walkingarea">
        <lane id=":Cluster.120_w1_0" index="0" allow="pedestrian" speed="2.78" length="16.32" width="3.00" shape="128.00,214.30 128.00,217.30 124.55,217.06 122.04,216.47 120.00,215.70 117.96,214.93 115.45,214.34 112.00,214.10 112.00,211.10 115.45,211.34 117.96,211.93 120.00,212.70 122.04,213.47 124.55,214.06"/>
    </edge>
    <edge id=":Cluster.200_0" function="internal">
        <lane id=":Cluster.200_0_0" index="0" disallow="pedestrian" speed="8.98" length="14.06" shape="192.00,177.70 191.40,183.30 189.60,187.30 186.60,189.70 186.40,189.74"/>
    </edge>
    <edge id=":Cluster.200_1" function="internal">
        <lane id=":Cluster.200_1_0" index="0" disallow="pedestrian" speed="16.67" length="44.71" shape="192.00,177.70 195.20,222.30"/>
        <lane id=":Cluster.200_1_1" index="1" disallow="pedestrian" speed="16.67" length="44.71" shape="195.20,177.70 198.40,222.30"/>
    </edge>
    <edge id=":Cluster.200_3" function="internal">
        <lane id=":Cluster.200_3_0" index="0" disallow="pedestrian" speed="12.49" length="11.89" shape="198.40,177.70 199.60,188.81 199.89,189.46"/>
    </edge>
    <edge id=":Cluster.200_20" function="internal">
        <lane id=":Cluster.200_20_0" index="0" disallow="pedestrian" speed="8.98" length="4.07" shape="186.40,189.74 182.40,190.50"/>
    </edge>
    <edge id=":Cluster.200_21" function="internal">
        <lane id=":Cluster.200_21_0" index="0" disallow="pedestrian" speed="12.49" length="24.22" shape="199.89,189.46 203.20,196.75 209.20,201.51 217.60,203.10"/>
    </edge>
    <edge id=":Cluster.200_4" function="internal">
        <lane id=":Cluster.200_4_0" index="0" disallow="pedestrian" speed="8.98" length="14.06" shape="217.60,187.30 212.00,186.70 208.00,184.90 205.60,181.90 205.56,181.70"/>
    </edge>
    <edge id=":Cluster.200_5" function="internal">
        <lane id=":Cluster.200_5_0" index="0" disallow="pedestrian" speed="16.67" length="35.39" shape="217.60,187.30 207.13,187.80 200.00,188.90 192.87,190.00 182.40,190.50"/>
        <lane id=":Cluster.200_5_1" index="1" disallow="pedestrian" speed="16.67" length="35.39" shape="217.60,190.50 207.13,191.00 200.00,192.10 192.87,193.20 182.40,193.70"/>
        <lane id=":Cluster.200_5_2" index="2" disallow="pedestrian" speed="16.67" length="35.39" shape="217.60,193.70 207.13,194.20 200.00,195.30 192.87,196.40 182.40,196.90"/>
    </edge>
    <edge id=":Cluster.200_8" function="internal">
        <lane id=":Cluster.200_8_0" index="0" disallow="pedestrian" speed="12.49" length="12.86" shape="217.60,196.90 209.20,198.49 205.82,201.17"/>
    </edge>
    <edge id=":Cluster.200_9" function="internal">
        <lane id=":Cluster.200_9_0" index="0" disallow="pedestrian" speed="4.66" length="5.72" shape="217.60,196.90 215.28,198.45 214.50,200.00 215.03,201.07"/>
    </edge>
    <edge id=":Cluster.200_22" function="internal">
        <lane id=":Cluster.200_22_0" index="0" disallow="pedestrian" speed="8.98" length="4.07" shape="205.56,181.70 204.80,177.70"/>
    </edge>
    <edge id=":Cluster.200_23" function="internal">
        <lane id=":Cluster.200_23_0" index="0" disallow="pedestrian" speed="12.49" length="23.24" shape="205.82,201.17 203.20,203.25 199.60,211.19 198.40,222.30"/>
    </edge>
    <edge id=":Cluster.200_24" function="internal">
        <lane id=":Cluster.200_24_0" index="0" disallow="pedestrian" speed="4.66" length="3.33" shape="215.03,201.07 215.27,201.55 217.60,203.10"/>
    </edge>
    <edge id=":Cluster.200_10" function="internal">
        <lane id=":Cluster.200_10_0" index="0" disallow="pedestrian" speed="8.98" length="14.06" shape="208.00,222.30 208.60,216.70 210.40,212.70 213.40,210.30 213.60,210.26"/>
    </edge>
    <edge id=":Cluster.200_11" function="internal">
        <lane id=":Cluster.200_11_0" index="0" disallow="pedestrian" speed="16.67" length="44.71" shape="208.00,222.30 204.80,177.70"/>
        <lane id=":Cluster.200_11_1" index="1" disallow="pedestrian" speed="16.67" length="44.71" shape="204.80,222.30 201.60,177.70"/>
    </edge>
    <edge id=":Cluster.200_13" function="internal">
        <lane id=":Cluster.200_13_0" index="0" disallow="pedestrian" speed="12.49" length="11.89" shape="201.60,222.30 200.40,211.19 200.11,210.54"/>
    </edge>
    <edge id=":Cluster.200_25" function="internal">
        <lane id=":Cluster.200_25_0" index="0" disallow="pedestrian" speed="8.98" length="4.07" shape="213.60,210.26 217.60,209.50"/>
    </edge>
    <edge id=":Cluster.200_26" function="internal">
        <lane id=":Cluster.200_26_0" index="0" disallow="pedestrian" speed="12.49" length="24.22" shape="200.11,210.54 196.80,203.25 190.80,198.49 182.40,196.90"/>
    </edge>
    <edge id=":Cluster.200_14" function="internal">
        <lane id=":Cluster.200_14_0" index="0" disallow="pedestrian" speed="8.98" length="14.06" shape="182.40,212.70 188.00,213.30 192.00,215.10 194.40,218.10 194.44,218.30"/>
    </edge>
    <edge id=":Cluster.200_15" function="internal">
        <lane id=":Cluster.200_15_0" index="0" disallow="pedestrian" speed="16.67" length="35.39" shape="182.40,212.70 192.87,212.20 200.00,211.10 207.13,210.00 217.60,209.50"/>
        <lane id=":Cluster.200_15_1" index="1" disallow="pedestrian" speed="16.67" length="35.39" shape="182.40,209.50 192.87,209.00 200.00,207.90 207.13,206.80 217.60,206.30"/>
        <lane id=":Cluster.200_15_2" index="2" disallow="pedestrian" speed="16.67" length="35.39" shape="182.40,206.30 192.87,205.80 200.00,204.70 207.13,203.60 217.60,203.10"/>
    </edge>
    <edge id=":Cluster.200_18" function="internal">
        <lane id=":Cluster.200_18_0" index="0" disallow="pedestrian" speed="12.49" length="12.86" shape="182.40,203.10 190.80,201.51 194.18,198.83"/>
    </edge>
    <edge id=":Cluster.200_19" function="internal">
        <lane id=":Cluster.200_19_0" index="0" disallow="pedestrian" speed="4.66" length="5.72" shape="182.40,203.10 184.72,201.55 185.50,200.00 184.97,198.93"/>
    </edge>
    <edge id=":Cluster.200_27" function="internal">
        <lane id=":Cluster.200_27_0" index="0" disallow="pedestrian" speed="8.98" length="4.07" shape="194.44,218.30 195.20,222.30"/>
    </edge>
    <edge id=":Cluster.200_28" function="internal">
        <lane id=":Cluster.200_28_0" index="0" disallow="pedestrian" speed="12.49" length="23.24" shape="194.18,198.83 196.80,196.75 200.40,188.81 201.60,177.70"/>
    </edge>
    <edge id=":Cluster.200_29" function="internal">
        <lane id=":Cluster.200_29_0" index="0" disallow="pedestrian" speed="4.66" length="3.33" shape="184.97,198.93 184.73,198.45 182.40,196.90"/>
    </edge>
    <edge id=":Cluster.200_c0" function="crossing" crossingEdges="Edge.Minor.S_arm.SB.200 Edge.Minor.S_arm.NB.200">
        <lane id=":Cluster.200_c0_0" index="0" allow="pedestrian" speed="2.78" length="16.00" width="4.00" shape="206.40,179.70 190.40,179.70" outlineShape="206.50,-177.70 190.30,-177.70 190.18,-181.12 190.04,-181.70 207.44,-181.70 206.71,-180.14"/>
    </edge>
    <edge id=":Cluster.200_c1" function="crossing" crossingEdges="Edge.Main.WB.280-200">
        <lane id=":Cluster.200_c1_0" index="0" allow="pedestrian" speed="2.78" length="12.80" width="4.00" shape="215.60,198.50 215.60,185.70" outlineShape="217.60,-198.60 217.60,-185.60 214.18,-185.48 213.60,-185.34 213.60,-198.50 217.60,-198.50 213.60,-198.50"/>
    </edge>
    <edge id=":Cluster.200_c2" function="crossing" crossingEdges="Edge.Main.EB.200-280">
        <lane id=":Cluster.200_c2_0" index="0" allow="pedestrian" speed="2.78" length="9.60" width="4.00" shape="215.60,211.10 215.60,201.50" outlineShape="217.60,-211.20 217.60,-201.40 213.60,-201.50 217.60,-201.50 213.60,-201.50 213.60,-212.14 215.16,-211.41"/>
    </edge>
    <edge id=":Cluster.200_c3" function="crossing" crossingEdges="Edge.Minor.N_arm.NB.200 Edge.Minor.N_arm.SB.200">
        <lane id=":Cluster.200_c3_0" index="0" allow="pedestrian" speed="2.78" length="16.00" width="4.00" shape="193.60,220.30 209.60,220.30" outlineShape="193.50,-222.30 209.70,-222.30 209.82,-218.88 209.96,-218.30 192.56,-218.30 193.29,-219.86"/>
    </edge>
    <edge id=":Cluster.200_c4" function="crossing" crossingEdges="Edge.Main.EB.120-200">
        <lane id=":Cluster.200_c4_0" index="0" allow="pedestrian" speed="2.78" length="12.80" width="4.00" shape="184.40,201.50 184.40,214.30" outlineShape="182.40,-201.40 182.40,-214.40 185.82,-214.52 186.40,-214.66 186.40,-201.50 182.40,-201.50 186.40,-201.50"/>
    </edge>
    <edge id=":Cluster.200_c5" function="crossing" crossingEdges="Edge.Main.WB.200-120">
        <lane id=":Cluster.200_c5_0" index="0" allow="pedestrian" speed="2.78" length="9.60" width="4.00" shape="184.40,188.90 184.40,198.50" outlineShape="182.40,-188.80 182.40,-198.60 186.40,-198.50 182.40,-198.50 186.40,-198.50 186.40,-187.86 184.84,-188.59"/>
    </edge>
    <edge id=":Cluster.200_w0" function="walkingarea">
        <lane id=":Cluster.200_w0_0" index="0" allow="pedestrian" speed="2.78" length="8.47" width="4.00" shape="182.40,188.90 182.40,185.90 187.40,177.70 190.40,177.70 190.18,181.12 189.51,183.92 188.40,186.10 186.84,187.66 184.84,188.59"/>
    </edge>
    <edge id=":Cluster.200_w1" function="walkingarea">
        <lane id=":Cluster.200_w1_0" index="0" allow="pedestrian" speed="2.78" length="8.47" width="4.00" shape="206.40,177.70 209.40,177.70 217.60,182.70 217.60,185.70 214.18,185.48 211.38,184.81 209.20,183.70 207.64,182.14 206.71,180.14"/>
    </edge>
    <edge id=":Cluster.200_w2" function="walkingarea">
        <lane id=":Cluster.200_w2_0" index="0" allow="pedestrian" speed="2.78" length="8.47" width="4.00" shape="217.60,211.10 217.60,214.10 212.60,222.30 209.60,222.30 209.82,218.88 210.49,216.08 211.60,213.90 213.16,212.34 215.16,211.41"/>
    </edge>
    <edge id=":Cluster.200_w3" function="walkingarea">
        <lane id=":Cluster.200_w3_0" index="0" allow="pedestrian" speed="2.78" length="8.47" width="4.00" shape="193.60,222.30 190.60,222.30 182.40,217.30 182.40,214.30 185.82,214.52 188.62,215.19 190.80,216.30 192.36,217.86 193.29,219.86"/>
    </edge>
    <edge id=":Cluster.200_w4" function="walkingarea">
        <lane id=":Cluster.200_w4_0" index="0" allow="pedestrian" speed="2.78" length="3.00" width="4.00" shape="213.60,201.50 217.60,201.50 217.60,198.50 213.60,198.50"/>
    </edge>
    <edge id=":Cluster.200_w5" function="walkingarea">
        <lane id=":Cluster.200_w5_0" index="0" allow="pedestrian" speed="2.78" length="3.00" width="4.00" shape="186.40,198.50 182.40,198.50 182.40,201.50 186.40,201.50"/>
    </edge>
    <edge id=":Cluster.280_0" function="internal">
        <lane id=":Cluster.280_0_0" index="0" disallow="pedestrian" speed="8.33" length="15.48" shape="278.40,177.70 277.80,181.90 276.00,184.90 273.00,186.70 268.80,187.30"/>
    </edge>
    <edge id=":Cluster.280_1" function="internal">
        <lane id=":Cluster.280_1_0" index="0" disallow="pedestrian" speed="8.98" length="14.11" shape="291.20,190.50 287.00,189.70 284.00,187.30 282.20,183.30 282.03,181.70"/>
    </edge>
    <edge id=":Cluster.280_2" function="internal">
        <lane id=":Cluster.280_2_0" index="0" disallow="pedestrian" speed="16.67" length="22.70" shape="291.20,190.50 284.52,190.00 280.00,188.90 275.48,187.80 268.80,187.30"/>
        <lane id=":Cluster.280_2_1" index="1" disallow="pedestrian" speed="16.67" length="22.70" shape="291.20,193.70 284.52,193.20 280.00,192.10 275.48,191.00 268.80,190.50"/>
        <lane id=":Cluster.280_2_2" index="2" disallow="pedestrian" speed="16.67" length="22.70" shape="291.20,196.90 284.52,196.40 280.00,195.30 275.48,194.20 268.80,193.70"/>
    </edge>
    <edge id=":Cluster.280_10" function="internal">
        <lane id=":Cluster.280_10_0" index="0" disallow="pedestrian" speed="8.98" length="4.02" shape="282.03,181.70 281.60,177.70"/>
    </edge>
    <edge id=":Cluster.280_5" function="internal">
        <lane id=":Cluster.280_5_0" index="0" disallow="pedestrian" speed="8.33" length="15.48" shape="281.60,219.10 282.20,214.90 284.00,211.90 287.00,210.10 291.20,209.50"/>
    </edge>
    <edge id=":Cluster.280_6" function="internal">
        <lane id=":Cluster.280_6_0" index="0" disallow="pedestrian" speed="8.33" length="11.44" shape="268.80,209.50 273.00,210.10 276.00,211.90 277.80,214.90 277.83,215.10"/>
    </edge>
    <edge id=":Cluster.280_7" function="internal">
        <lane id=":Cluster.280_7_0" index="0" disallow="pedestrian" speed="16.67" length="22.40" shape="268.80,209.50 291.20,209.50"/>
        <lane id=":Cluster.280_7_1" index="1" disallow="pedestrian" speed="16.67" length="22.40" shape="268.80,206.30 291.20,206.30"/>
        <lane id=":Cluster.280_7_2" index="2" disallow="pedestrian" speed="16.67" length="22.40" shape="268.80,203.10 291.20,203.10"/>
    </edge>
    <edge id=":Cluster.280_11" function="internal">
        <lane id=":Cluster.280_11_0" index="0" disallow="pedestrian" speed="8.33" length="4.04" shape="277.83,215.10 278.40,219.10"/>
    </edge>
    <edge id=":Cluster.280_c0" function="crossing" crossingEdges="Edge.Minor.S_arm.SB.280 Edge.Minor.S_arm.NB.280">
        <lane id=":Cluster.280_c0_0" index="0" allow="pedestrian" speed="2.78" length="6.40" width="4.00" shape="283.20,179.70 276.80,179.70" outlineShape="283.20,-177.70 276.80,-177.70 276.58,-180.14 276.06,-181.70 283.56,-181.70 283.42,-181.12"/>
    </edge>
    <edge id=":Cluster.280_c1" function="crossing" crossingEdges="Edge.Minor.N_arm.NB.280 Edge.Minor.N_arm.SB.280">
        <lane id=":Cluster.280_c1_0" index="0" allow="pedestrian" speed="2.78" length="6.40" width="4.00" shape="276.80,217.10 283.20,217.10" outlineShape="276.80,-219.10 283.20,-219.10 283.42,-216.66 283.94,-215.10 276.06,-215.10 276.58,-216.66"/>
    </edge>
    <edge id=":Cluster.280_w0" function="walkingarea">
        <lane id=":Cluster.280_w0_0" index="0" allow="pedestrian" speed="2.78" length="6.96" width="4.00" shape="268.80,185.70 268.80,182.70 273.80,177.70 276.80,177.70 276.58,180.14 275.91,182.14 274.80,183.70 273.24,184.81 271.24,185.48"/>
    </edge>
    <edge id=":Cluster.280_w1" function="walkingarea">
        <lane id=":Cluster.280_w1_0" index="0" allow="pedestrian" speed="2.78" length="8.43" width="4.00" shape="283.20,177.70 286.20,177.70 291.20,185.90 291.20,188.90 288.76,188.59 286.76,187.66 285.20,186.10 284.09,183.92 283.42,181.12"/>
    </edge>
    <edge id=":Cluster.280_w2" function="walkingarea">
        <lane id=":Cluster.280_w2_0" index="0" allow="pedestrian" speed="2.78" length="6.96" width="4.00" shape="291.20,211.10 291.20,214.10 286.20,219.10 283.20,219.10 283.42,216.66 284.09,214.66 285.20,213.10 286.76,211.99 288.76,211.32"/>
    </edge>
    <edge id=":Cluster.280_w3" function="walkingarea">
        <lane id=":Cluster.280_w3_0" index="0" allow="pedestrian" speed="2.78" length="6.96" width="4.00" shape="276.80,219.10 273.80,219.10 268.80,214.10 268.80,211.10 271.24,211.32 273.24,211.99 274.80,213.10 275.91,214.66 276.58,216.66"/>
    </edge>
    <edge id=":Cluster.340_0" function="internal">
        <lane id=":Cluster.340_0_0" index="0" disallow="pedestrian" speed="8.33" length="15.48" shape="338.40,180.90 337.80,185.10 336.00,188.10 333.00,189.90 328.80,190.50"/>
    </edge>
    <edge id=":Cluster.340_1" function="internal">
        <lane id=":Cluster.340_1_0" index="0" disallow="pedestrian" speed="8.33" length="11.44" shape="351.20,190.50 347.00,189.90 344.00,188.10 342.20,185.10 342.17,184.90"/>
    </edge>
    <edge id=":Cluster.340_2" function="internal">
        <lane id=":Cluster.340_2_0" index="0" disallow="pedestrian" speed="16.67" length="22.40" shape="351.20,190.50 328.80,190.50"/>
        <lane id=":Cluster.340_2_1" index="1" disallow="pedestrian" speed="16.67" length="22.40" shape="351.20,193.70 328.80,193.70"/>
        <lane id=":Cluster.340_2_2" index="2" disallow="pedestrian" speed="16.67" length="22.40" shape="351.20,196.90 328.80,196.90"/>
    </edge>
    <edge id=":Cluster.340_10" function="internal">
        <lane id=":Cluster.340_10_0" index="0" disallow="pedestrian" speed="8.33" length="4.04" shape="342.17,184.90 341.60,180.90"/>
    </edge>
    <edge id=":Cluster.340_5" function="internal">
        <lane id=":Cluster.340_5_0" index="0" disallow="pedestrian" speed="8.33" length="15.48" shape="341.60,219.10 342.20,214.90 344.00,211.90 347.00,210.10 351.20,209.50"/>
    </edge>
    <edge id=":Cluster.340_6" function="internal">
        <lane id=":Cluster.340_6_0" index="0" disallow="pedestrian" speed="8.33" length="11.44" shape="328.80,209.50 333.00,210.10 336.00,211.90 337.80,214.90 337.83,215.10"/>
    </edge>
    <edge id=":Cluster.340_7" function="internal">
        <lane id=":Cluster.340_7_0" index="0" disallow="pedestrian" speed="16.67" length="22.40" shape="328.80,209.50 351.20,209.50"/>
        <lane id=":Cluster.340_7_1" index="1" disallow="pedestrian" speed="16.67" length="22.40" shape="328.80,206.30 351.20,206.30"/>
        <lane id=":Cluster.340_7_2" index="2" disallow="pedestrian" speed="16.67" length="22.40" shape="328.80,203.10 351.20,203.10"/>
    </edge>
    <edge id=":Cluster.340_11" function="internal">
        <lane id=":Cluster.340_11_0" index="0" disallow="pedestrian" speed="8.33" length="4.04" shape="337.83,215.10 338.40,219.10"/>
    </edge>
    <edge id=":Cluster.340_c0" function="crossing" crossingEdges="Edge.Minor.S_arm.SB.340 Edge.Minor.S_arm.NB.340">
        <lane id=":Cluster.340_c0_0" index="0" allow="pedestrian" speed="2.78" length="6.40" width="4.00" shape="343.20,182.90 336.80,182.90" outlineShape="343.20,-180.90 336.80,-180.90 336.58,-183.34 336.06,-184.90 343.94,-184.90 343.42,-183.34"/>
    </edge>
    <edge id=":Cluster.340_c1" function="crossing" crossingEdges="Edge.Minor.N_arm.NB.340 Edge.Minor.N_arm.SB.340">
        <lane id=":Cluster.340_c1_0" index="0" allow="pedestrian" speed="2.78" length="6.40" width="4.00" shape="336.80,217.10 343.20,217.10" outlineShape="336.80,-219.10 343.20,-219.10 343.42,-216.66 343.94,-215.10 336.06,-215.10 336.58,-216.66"/>
    </edge>
    <edge id=":Cluster.340_w0" function="walkingarea">
        <lane id=":Cluster.340_w0_0" index="0" allow="pedestrian" speed="2.78" length="6.96" width="4.00" shape="328.80,188.90 328.80,185.90 333.80,180.90 336.80,180.90 336.58,183.34 335.91,185.34 334.80,186.90 333.24,188.01 331.24,188.68"/>
    </edge>
    <edge id=":Cluster.340_w1" function="walkingarea">
        <lane id=":Cluster.340_w1_0" index="0" allow="pedestrian" speed="2.78" length="6.96" width="4.00" shape="343.20,180.90 346.20,180.90 351.20,185.90 351.20,188.90 348.76,188.68 346.76,188.01 345.20,186.90 344.09,185.34 343.42,183.34"/>
    </edge>
    <edge id=":Cluster.340_w2" function="walkingarea">
        <lane id=":Cluster.340_w2_0" index="0" allow="pedestrian" speed="2.78" length="6.96" width="4.00" shape="351.20,211.10 351.20,214.10 346.20,219.10 343.20,219.10 343.42,216.66 344.09,214.66 345.20,213.10 346.76,211.99 348.76,211.32"/>
    </edge>
    <edge id=":Cluster.340_w3" function="walkingarea">
        <lane id=":Cluster.340_w3_0" index="0" allow="pedestrian" speed="2.78" length="6.96" width="4.00" shape="336.80,219.10 333.80,219.10 328.80,214.10 328.80,211.10 331.24,211.32 333.24,211.99 334.80,213.10 335.91,214.66 336.58,216.66"/>
    </edge>
    <edge id=":Cluster.400_0" function="internal">
        <lane id=":Cluster.400_0_0" index="0" disallow="pedestrian" speed="8.33" length="15.48" shape="398.40,180.90 397.80,185.10 396.00,188.10 393.00,189.90 388.80,190.50"/>
    </edge>
    <edge id=":Cluster.400_1" function="internal">
        <lane id=":Cluster.400_1_0" index="0" disallow="pedestrian" speed="8.33" length="11.44" shape="411.20,190.50 407.00,189.90 404.00,188.10 402.20,185.10 402.17,184.90"/>
    </edge>
    <edge id=":Cluster.400_2" function="internal">
        <lane id=":Cluster.400_2_0" index="0" disallow="pedestrian" speed="16.67" length="22.40" shape="411.20,190.50 388.80,190.50"/>
        <lane id=":Cluster.400_2_1" index="1" disallow="pedestrian" speed="16.67" length="22.40" shape="411.20,193.70 388.80,193.70"/>
        <lane id=":Cluster.400_2_2" index="2" disallow="pedestrian" speed="16.67" length="22.40" shape="411.20,196.90 388.80,196.90"/>
    </edge>
    <edge id=":Cluster.400_10" function="internal">
        <lane id=":Cluster.400_10_0" index="0" disallow="pedestrian" speed="8.33" length="4.04" shape="402.17,184.90 401.60,180.90"/>
    </edge>
    <edge id=":Cluster.400_5" function="internal">
        <lane id=":Cluster.400_5_0" index="0" disallow="pedestrian" speed="8.33" length="15.48" shape="401.60,219.10 402.20,214.90 404.00,211.90 407.00,210.10 411.20,209.50"/>
    </edge>
    <edge id=":Cluster.400_6" function="internal">
        <lane id=":Cluster.400_6_0" index="0" disallow="pedestrian" speed="8.33" length="11.44" shape="388.80,209.50 393.00,210.10 396.00,211.90 397.80,214.90 397.83,215.10"/>
    </edge>
    <edge id=":Cluster.400_7" function="internal">
        <lane id=":Cluster.400_7_0" index="0" disallow="pedestrian" speed="16.67" length="22.40" shape="388.80,209.50 411.20,209.50"/>
        <lane id=":Cluster.400_7_1" index="1" disallow="pedestrian" speed="16.67" length="22.40" shape="388.80,206.30 411.20,206.30"/>
        <lane id=":Cluster.400_7_2" index="2" disallow="pedestrian" speed="16.67" length="22.40" shape="388.80,203.10 411.20,203.10"/>
    </edge>
    <edge id=":Cluster.400_11" function="internal">
        <lane id=":Cluster.400_11_0" index="0" disallow="pedestrian" speed="8.33" length="4.04" shape="397.83,215.10 398.40,219.10"/>
    </edge>
    <edge id=":Cluster.400_c0" function="crossing" crossingEdges="Edge.Minor.S_arm.SB.400 Edge.Minor.S_arm.NB.400">
        <lane id=":Cluster.400_c0_0" index="0" allow="pedestrian" speed="2.78" length="6.40" width="4.00" shape="403.20,182.90 396.80,182.90" outlineShape="403.20,-180.90 396.80,-180.90 396.58,-183.34 396.06,-184.90 403.94,-184.90 403.42,-183.34"/>
    </edge>
    <edge id=":Cluster.400_c1" function="crossing" crossingEdges="Edge.Minor.N_arm.NB.400 Edge.Minor.N_arm.SB.400">
        <lane id=":Cluster.400_c1_0" index="0" allow="pedestrian" speed="2.78" length="6.40" width="4.00" shape="396.80,217.10 403.20,217.10" outlineShape="396.80,-219.10 403.20,-219.10 403.42,-216.66 403.94,-215.10 396.06,-215.10 396.58,-216.66"/>
    </edge>
    <edge id=":Cluster.400_w0" function="walkingarea">
        <lane id=":Cluster.400_w0_0" index="0" allow="pedestrian" speed="2.78" length="6.96" width="4.00" shape="388.80,188.90 388.80,185.90 393.80,180.90 396.80,180.90 396.58,183.34 395.91,185.34 394.80,186.90 393.24,188.01 391.24,188.68"/>
    </edge>
    <edge id=":Cluster.400_w1" function="walkingarea">
        <lane id=":Cluster.400_w1_0" index="0" allow="pedestrian" speed="2.78" length="6.96" width="4.00" shape="403.20,180.90 406.20,180.90 411.20,185.90 411.20,188.90 408.76,188.68 406.76,188.01 405.20,186.90 404.09,185.34 403.42,183.34"/>
    </edge>
    <edge id=":Cluster.400_w2" function="walkingarea">
        <lane id=":Cluster.400_w2_0" index="0" allow="pedestrian" speed="2.78" length="6.96" width="4.00" shape="411.20,211.10 411.20,214.10 406.20,219.10 403.20,219.10 403.42,216.66 404.09,214.66 405.20,213.10 406.76,211.99 408.76,211.32"/>
    </edge>
    <edge id=":Cluster.400_w3" function="walkingarea">
        <lane id=":Cluster.400_w3_0" index="0" allow="pedestrian" speed="2.78" length="6.96" width="4.00" shape="396.80,219.10 393.80,219.10 388.80,214.10 388.80,211.10 391.24,211.32 393.24,211.99 394.80,213.10 395.91,214.66 396.58,216.66"/>
    </edge>
    <edge id=":Cluster.460_0" function="internal">
        <lane id=":Cluster.460_0_0" index="0" disallow="pedestrian" speed="8.33" length="15.48" shape="458.40,180.90 457.80,185.10 456.00,188.10 453.00,189.90 448.80,190.50"/>
    </edge>
    <edge id=":Cluster.460_1" function="internal">
        <lane id=":Cluster.460_1_0" index="0" disallow="pedestrian" speed="8.33" length="11.44" shape="471.20,190.50 467.00,189.90 464.00,188.10 462.20,185.10 462.17,184.90"/>
    </edge>
    <edge id=":Cluster.460_2" function="internal">
        <lane id=":Cluster.460_2_0" index="0" disallow="pedestrian" speed="16.67" length="22.40" shape="471.20,190.50 448.80,190.50"/>
        <lane id=":Cluster.460_2_1" index="1" disallow="pedestrian" speed="16.67" length="22.40" shape="471.20,193.70 448.80,193.70"/>
        <lane id=":Cluster.460_2_2" index="2" disallow="pedestrian" speed="16.67" length="22.40" shape="471.20,196.90 448.80,196.90"/>
    </edge>
    <edge id=":Cluster.460_10" function="internal">
        <lane id=":Cluster.460_10_0" index="0" disallow="pedestrian" speed="8.33" length="4.04" shape="462.17,184.90 461.60,180.90"/>
    </edge>
    <edge id=":Cluster.460_5" function="internal">
        <lane id=":Cluster.460_5_0" index="0" disallow="pedestrian" speed="8.33" length="15.48" shape="461.60,222.30 462.20,218.10 464.00,215.10 467.00,213.30 471.20,212.70"/>
    </edge>
    <edge id=":Cluster.460_6" function="internal">
        <lane id=":Cluster.460_6_0" index="0" disallow="pedestrian" speed="8.98" length="14.11" shape="448.80,209.50 453.00,210.30 456.00,212.70 457.80,216.70 457.97,218.30"/>
    </edge>
    <edge id=":Cluster.460_7" function="internal">
        <lane id=":Cluster.460_7_0" index="0" disallow="pedestrian" speed="16.67" length="22.70" shape="448.80,209.50 455.48,210.00 460.00,211.10 464.52,212.20 471.20,212.70"/>
        <lane id=":Cluster.460_7_1" index="1" disallow="pedestrian" speed="16.67" length="22.70" shape="448.80,206.30 455.48,206.80 460.00,207.90 464.52,209.00 471.20,209.50"/>
        <lane id=":Cluster.460_7_2" index="2" disallow="pedestrian" speed="16.67" length="22.70" shape="448.80,203.10 455.48,203.60 460.00,204.70 464.52,205.80 471.20,206.30"/>
    </edge>
    <edge id=":Cluster.460_11" function="internal">
        <lane id=":Cluster.460_11_0" index="0" disallow="pedestrian" speed="8.98" length="4.02" shape="457.97,218.30 458.40,222.30"/>
    </edge>
    <edge id=":Cluster.460_c0" function="crossing" crossingEdges="Edge.Minor.S_arm.SB.460 Edge.Minor.S_arm.NB.460">
        <lane id=":Cluster.460_c0_0" index="0" allow="pedestrian" speed="2.78" length="6.40" width="4.00" shape="463.20,182.90 456.80,182.90" outlineShape="463.20,-180.90 456.80,-180.90 456.58,-183.34 456.06,-184.90 463.94,-184.90 463.42,-183.34"/>
    </edge>
    <edge id=":Cluster.460_c1" function="crossing" crossingEdges="Edge.Minor.N_arm.NB.460 Edge.Minor.N_arm.SB.460">
        <lane id=":Cluster.460_c1_0" index="0" allow="pedestrian" speed="2.78" length="6.40" width="4.00" shape="456.80,220.30 463.20,220.30" outlineShape="456.80,-222.30 463.20,-222.30 463.42,-219.86 463.94,-218.30 456.44,-218.30 456.58,-218.88"/>
    </edge>
    <edge id=":Cluster.460_w0" function="walkingarea">
        <lane id=":Cluster.460_w0_0" index="0" allow="pedestrian" speed="2.78" length="6.96" width="4.00" shape="448.80,188.90 448.80,185.90 453.80,180.90 456.80,180.90 456.58,183.34 455.91,185.34 454.80,186.90 453.24,188.01 451.24,188.68"/>
    </edge>
    <edge id=":Cluster.460_w1" function="walkingarea">
        <lane id=":Cluster.460_w1_0" index="0" allow="pedestrian" speed="2.78" length="6.96" width="4.00" shape="463.20,180.90 466.20,180.90 471.20,185.90 471.20,188.90 468.76,188.68 466.76,188.01 465.20,186.90 464.09,185.34 463.42,183.34"/>
    </edge>
    <edge id=":Cluster.460_w2" function="walkingarea">