<routes xmlns:xsi="http://www.w3.org/2001/XMLSchema-instance"
        xsi:noNamespaceSchemaLocation="http://sumo.dlr.de/xsd/routes_file.xsd">
  <flow id="vf_Node.Main.0.N__Node.Minor.200.N_end__seg0__0" begin="0.00" end="2400.00" fromJunction="Node.Main.0.N" toJunction="Node.Minor.200.N_end" departLane="best_prob" departSpeed="max" period="exp(0.033333)"/>
  <flow id="vf_Node.Main.0.N__Node.Minor.200.S_end__seg0__0" begin="0.00" end="2400.00" fromJunction="Node.Main.0.N" toJunction="Node.Minor.200.S_end" departLane="best_prob" departSpeed="max" period="exp(0.033333)"/>
  <flow id="vf_Node.Main.0.N__Node.Minor.280.N_end__seg0__0" begin="0.00" end="2400.00" fromJunction="Node.Main.0.N" toJunction="Node.Minor.280.N_end" departLane="best_prob" departSpeed="max" period="exp(0.010667)"/>
  <flow id="vf_Node.Main.0.N__Node.Minor.280.S_end__seg0__0" begin="0.00" end="2400.00" fromJunction="Node.Main.0.N" toJunction="Node.Minor.280.S_end" departLane="best_prob" departSpeed="max" period="exp(0.002667)"/>
  <flow id="vf_Node.Main.0.N__Node.Minor.340.N_end__seg0__0" begin="0.00" end="2400.00" fromJunction="Node.Main.0.N" toJunction="Node.Minor.340.N_end" departLane="best_prob" departSpeed="max" period="exp(0.010133)"/>
  <flow id="vf_Node.Main.0.N__Node.Minor.340.S_end__seg0__0" begin="0.00" end="2400.00" fromJunction="Node.Main.0.N" toJunction="Node.Minor.340.S_end" departLane="best_prob" departSpeed="max" period="exp(0.002533)"/>
  <flow id="vf_Node.Main.0.N__Node.Minor.400.N_end__seg0__0" begin="0.00" end="2400.00" fromJunction="Node.Main.0.N" toJunction="Node.Minor.400.N_end" departLane="best_prob" departSpeed="max" period="exp(0.009627)"/>
  <flow id="vf_Node.Main.0.N__Node.Minor.400.S_end__seg0__0" begin="0.00" end="2400.00" fromJunction="Node.Main.0.N" toJunction="Node.Minor.400.S_end" departLane="best_prob" departSpeed="max" period="exp(0.002407)"/>
  <flow id="vf_Node.Main.0.N__Node.Minor.460.N_end__seg0__0" begin="0.00" end="2400.00" fromJunction="Node.Main.0.N" toJunction="Node.Minor.460.N_end" departLane="best_prob" departSpeed="max" period="exp(0.009145)"/>
  <flow id="vf_Node.Main.0.N__Node.Minor.460.S_end__seg0__0" begin="0.00" end="2400.00" fromJunction="Node.Main.0.N" toJunction="Node.Minor.460.S_end" departLane="best_prob" departSpeed="max" period="exp(0.002286)"/>
  <flow id="vf_Node.Main.0.N__Node.Minor.540.N_end__seg0__0" begin="0.00" end="2400.00" fromJunction="Node.Main.0.N" toJunction="Node.Minor.540.N_end" departLane="best_prob" departSpeed="max" period="exp(0.021720)"/>
  <flow id="vf_Node.Main.0.N__Node.Minor.540.S_end__seg0__0" begin="0.00" end="2400.00" fromJunction="Node.Main.0.N" toJunction="Node.Minor.540.S_end" departLane="best_prob" departSpeed="max" period="exp(0.021720)"/>
  <flow id="vf_Node.Main.0.N__Node.Main.740.N__seg0__0" begin="0.00" end="2400.00" fromJunction="Node.Main.0.N" toJunction="Node.Main.740.N" departLane="best_prob" departSpeed="max" period="exp(0.173761)"/>
  <flow id="vf_Node.Main.740.S__Node.Minor.540.S_end__seg0__0" begin="0.00" end="2400.00" fromJunction="Node.Main.740.S" toJunction="Node.Minor.540.S_end" departLane="best_prob" departSpeed="max" period="exp(0.033333)"/>
  <flow id="vf_Node.Main.740.S__Node.Minor.540.N_end__seg0__0" begin="0.00" end="2400.00" fromJunction="Node.Main.740.S" toJunction="Node.Minor.540.N_end" departLane="best_prob" departSpeed="max" period="exp(0.033333)"/>
  <flow id="vf_Node.Main.740.S__Node.Minor.460.S_end__seg0__0" begin="0.00" end="2400.00" fromJunction="Node.Main.740.S" toJunction="Node.Minor.460.S_end" departLane="best_prob" departSpeed="max" period="exp(0.010667)"/>
  <flow id="vf_Node.Main.740.S__Node.Minor.460.N_end__seg0__0" begin="0.00" end="2400.00" fromJunction="Node.Main.740.S" toJunction="Node.Minor.460.N_end" departLane="best_prob" departSpeed="max" period="exp(0.002667)"/>
  <flow id="vf_Node.Main.740.S__Node.Minor.400.S_end__seg0__0" begin="0.00" end="2400.00" fromJunction="Node.Main.740.S" toJunction="Node.Minor.400.S_end" departLane="best_prob" departSpeed="max" period="exp(0.010133)"/>
  <flow id="vf_Node.Main.740.S__Node.Minor.400.N_end__seg0__0" begin="0.00" end="2400.00" fromJunction="Node.Main.740.S" toJunction="Node.Minor.400.N_end" departLane="best_prob" departSpeed="max" period="exp(0.002533)"/>
  <flow id="vf_Node.Main.740.S__Node.Minor.340.S_end__seg0__0" begin="0.00" end="2400.00" fromJunction="Node.Main.740.S" toJunction="Node.Minor.340.S_end" departLane="best_prob" departSpeed="max" period="exp(0.009627)"/>
  <flow id="vf_Node.Main.740.S__Node.Minor.340.N_end__seg0__0" begin="0.00" end="2400.00" fromJunction="Node.Main.740.S" toJunction="Node.Minor.340.N_end" departLane="best_prob" departSpeed="max" period="exp(0.002407)"/>
  <flow id="vf_Node.Main.740.S__Node.Minor.280.S_end__seg0__0" begin="0.00" end="2400.00" fromJunction="Node.Main.740.S" toJunction="Node.Minor.280.S_end" departLane="best_prob" departSpeed="max" period="exp(0.009145)"/>
  <flow id="vf_Node.Main.740.S__Node.Minor.280.N_end__seg0__0" begin="0.00" end="2400.00" fromJunction="Node.Main.740.S" toJunction="Node.Minor.280.N_end" departLane="best_prob" departSpeed="max" period="exp(0.002286)"/>
  <flow id="vf_Node.Main.740.S__Node.Minor.200.S_end__seg0__0" begin="0.00" end="2400.00" fromJunction="Node.Main.740.S" toJunction="Node.Minor.200.S_end" departLane="best_prob" departSpeed="max" period="exp(0.021720)"/>
  <flow id="vf_Node.Main.740.S__Node.Minor.200.N_end__seg0__0" begin="0.00" end="2400.00" fromJunction="Node.Main.740.S" toJunction="Node.Minor.200.N_end" departLane="best_prob" departSpeed="max" period="exp(0.021720)"/>
  <flow id="vf_Node.Main.740.S__Node.Main.0.S__seg0__0" begin="0.00" end="2400.00" fromJunction="Node.Main.740.S" toJunction="Node.Main.0.S" departLane="best_prob" departSpeed="max" period="exp(0.173761)"/>
  <flow id="vf_Node.Minor.200.N_end__Node.Minor.200.S_end__seg0__0" begin="0.00" end="2400.00" fromJunction="Node.Minor.200.N_end" toJunction="Node.Minor.200.S_end" departLane="best_prob" departSpeed="max" period="exp(0.155556)"/>
  <flow id="vf_Node.Minor.200.N_end__Node.Minor.280.N_end__seg0__0" begin="0.00" end="2400.00" fromJunction="Node.Minor.200.N_end" toJunction="Node.Minor.280.N_end" departLane="best_prob" departSpeed="max" period="exp(0.001333)"/>
  <flow id="vf_Node.Minor.200.N_end__Node.Minor.280.S_end__seg0__0" begin="0.00" end="2400.00" fromJunction="Node.Minor.200.N_end" toJunction="Node.Minor.280.S_end" departLane="best_prob" departSpeed="max" period="exp(0.000333)"/>
  <flow id="vf_Node.Minor.200.N_end__Node.Minor.340.N_end__seg0__0" begin="0.00" end="2400.00" fromJunction="Node.Minor.200.N_end" toJunction="Node.Minor.340.N_end" departLane="best_prob" departSpeed="max" period="exp(0.001267)"/>
  <flow id="vf_Node.Minor.200.N_end__Node.Minor.340.S_end__seg0__0" begin="0.00" end="2400.00" fromJunction="Node.Minor.200.N_end" toJunction="Node.Minor.340.S_end" departLane="best_prob" departSpeed="max" period="exp(0.000317)"/>
  <flow id="vf_Node.Minor.200.N_end__Node.Main.0.S__seg0__0" begin="0.00" end="2400.00" fromJunction="Node.Minor.200.N_end" toJunction="Node.Main.0.S" departLane="best_prob" departSpeed="max" period="exp(0.033333)"/>
  <flow id="vf_Node.Minor.200.N_end__Node.Minor.400.N_end__seg0__0" begin="0.00" end="2400.00" fromJunction="Node.Minor.200.N_end" toJunction="Node.Minor.400.N_end" departLane="best_prob" departSpeed="max" period="exp(0.001203)"/>
  <flow id="vf_Node.Minor.200.N_end__Node.Minor.400.S_end__seg0__0" begin="0.00" end="2400.00" fromJunction="Node.Minor.200.N_end" toJunction="Node.Minor.400.S_end" departLane="best_prob" departSpeed="max" period="exp(0.000301)"/>
  <flow id="vf_Node.Minor.200.N_end__Node.Minor.460.N_end__seg0__0" begin="0.00" end="2400.00" fromJunction="Node.Minor.200.N_end" toJunction="Node.Minor.460.N_end" departLane="best_prob" departSpeed="max" period="exp(0.001143)"/>
  <flow id="vf_Node.Minor.200.N_end__Node.Minor.460.S_end__seg0__0" begin="0.00" end="2400.00" fromJunction="Node.Minor.200.N_end" toJunction="Node.Minor.460.S_end" departLane="best_prob" departSpeed="max" period="exp(0.000286)"/>
  <flow id="vf_Node.Minor.200.N_end__Node.Minor.540.N_end__seg0__0" begin="0.00" end="2400.00" fromJunction="Node.Minor.200.N_end" toJunction="Node.Minor.540.N_end" departLane="best_prob" departSpeed="max" period="exp(0.002715)"/>
  <flow id="vf_Node.Minor.200.N_end__Node.Minor.540.S_end__seg0__0" begin="0.00" end="2400.00" fromJunction="Node.Minor.200.N_end" toJunction="Node.Minor.540.S_end" departLane="best_prob" departSpeed="max" period="exp(0.002715)"/>
  <flow id="vf_Node.Minor.200.N_end__Node.Main.740.N__seg0__0" begin="0.00" end="2400.00" fromJunction="Node.Minor.200.N_end" toJunction="Node.Main.740.N" departLane="best_prob" departSpeed="max" period="exp(0.021720)"/>
  <flow id="vf_Node.Minor.280.N_end__Node.Minor.280.S_end__seg0__0" begin="0.00" end="2400.00" fromJunction="Node.Minor.280.N_end" toJunction="Node.Minor.280.S_end" departLane="best_prob" departSpeed="max" period="exp(0.000833)"/>
  <flow id="vf_Node.Minor.280.N_end__Node.Minor.340.N_end__seg0__0" begin="0.00" end="2400.00" fromJunction="Node.Minor.280.N_end" toJunction="Node.Minor.340.N_end" departLane="best_prob" departSpeed="max" period="exp(0.000600)"/>
  <flow id="vf_Node.Minor.280.N_end__Node.Minor.340.S_end__seg0__0" begin="0.00" end="2400.00" fromJunction="Node.Minor.280.N_end" toJunction="Node.Minor.340.S_end" departLane="best_prob" departSpeed="max" period="exp(0.000150)"/>
  <flow id="vf_Node.Minor.280.N_end__Node.Minor.200.S_end__seg0__0" begin="0.00" end="2400.00" fromJunction="Node.Minor.280.N_end" toJunction="Node.Minor.200.S_end" departLane="best_prob" departSpeed="max" period="exp(0.000083)"/>
  <flow id="vf_Node.Minor.280.N_end__Node.Minor.200.N_end__seg0__0" begin="0.00" end="2400.00" fromJunction="Node.Minor.280.N_end" toJunction="Node.Minor.200.N_end" departLane="best_prob" departSpeed="max" period="exp(0.000083)"/>
  <flow id="vf_Node.Minor.280.N_end__Node.Minor.400.N_end__seg0__0" begin="0.00" end="2400.00" fromJunction="Node.Minor.280.N_end" toJunction="Node.Minor.400.N_end" departLane="best_prob" departSpeed="max" period="exp(0.000570)"/>
  <flow id="vf_Node.Minor.280.N_end__Node.Minor.400.S_end__seg0__0" begin="0.00" end="2400.00" fromJunction="Node.Minor.280.N_end" toJunction="Node.Minor.400.S_end" departLane="best_prob" departSpeed="max" period="exp(0.000142)"/>
  <flow id="vf_Node.Minor.280.N_end__Node.Minor.460.N_end__seg0__0" begin="0.00" end="2400.00" fromJunction="Node.Minor.280.N_end" toJunction="Node.Minor.460.N_end" departLane="best_prob" departSpeed="max" period="exp(0.000541)"/>
  <flow id="vf_Node.Minor.280.N_end__Node.Minor.460.S_end__seg0__0" begin="0.00" end="2400.00" fromJunction="Node.Minor.280.N_end" toJunction="Node.Minor.460.S_end" departLane="best_prob" departSpeed="max" period="exp(0.000135)"/>
  <flow id="vf_Node.Minor.280.N_end__Node.Main.0.S__seg0__0" begin="0.00" end="2400.00" fromJunction="Node.Minor.280.N_end" toJunction="Node.Main.0.S" departLane="best_prob" departSpeed="max" period="exp(0.000667)"/>
  <flow id="vf_Node.Minor.280.N_end__Node.Minor.540.N_end__seg0__0" begin="0.00" end="2400.00" fromJunction="Node.Minor.280.N_end" toJunction="Node.Minor.540.N_end" departLane="best_prob" departSpeed="max" period="exp(0.001286)"/>
  <flow id="vf_Node.Minor.280.N_end__Node.Minor.540.S_end__seg0__0" begin="0.00" end="2400.00" fromJunction="Node.Minor.280.N_end" toJunction="Node.Minor.540.S_end" departLane="best_prob" departSpeed="max" period="exp(0.001286)"/>
  <flow id="vf_Node.Minor.280.N_end__Node.Main.740.N__seg0__0" begin="0.00" end="2400.00" fromJunction="Node.Minor.280.N_end" toJunction="Node.Main.740.N" departLane="best_prob" departSpeed="max" period="exp(0.010288)"/>
  <flow id="vf_Node.Minor.340.N_end__Node.Minor.340.S_end__seg0__0" begin="0.00" end="2400.00" fromJunction="Node.Minor.340.N_end" toJunction="Node.Minor.340.S_end" departLane="best_prob" departSpeed="max" period="exp(0.000833)"/>
  <flow id="vf_Node.Minor.340.N_end__Node.Minor.400.N_end__seg0__0" begin="0.00" end="2400.00" fromJunction="Node.Minor.340.N_end" toJunction="Node.Minor.400.N_end" departLane="best_prob" departSpeed="max" period="exp(0.000600)"/>
  <flow id="vf_Node.Minor.340.N_end__Node.Minor.400.S_end__seg0__0" begin="0.00" end="2400.00" fromJunction="Node.Minor.340.N_end" toJunction="Node.Minor.400.S_end" departLane="best_prob" departSpeed="max" period="exp(0.000150)"/>
  <flow id="vf_Node.Minor.340.N_end__Node.Minor.280.S_end__seg0__0" begin="0.00" end="2400.00" fromJunction="Node.Minor.340.N_end" toJunction="Node.Minor.280.S_end" departLane="best_prob" departSpeed="max" period="exp(0.000033)"/>
  <flow id="vf_Node.Minor.340.N_end__Node.Minor.280.N_end__seg0__0" begin="0.00" end="2400.00" fromJunction="Node.Minor.340.N_end" toJunction="Node.Minor.280.N_end" departLane="best_prob" departSpeed="max" period="exp(0.000008)"/>
  <flow id="vf_Node.Minor.340.N_end__Node.Minor.460.N_end__seg0__0" begin="0.00" end="2400.00" fromJunction="Node.Minor.340.N_end" toJunction="Node.Minor.460.N_end" departLane="best_prob" departSpeed="max" period="exp(0.000570)"/>
  <flow id="vf_Node.Minor.340.N_end__Node.Minor.460.S_end__seg0__0" begin="0.00" end="2400.00" fromJunction="Node.Minor.340.N_end" toJunction="Node.Minor.460.S_end" departLane="best_prob" departSpeed="max" period="exp(0.000142)"/>
  <flow id="vf_Node.Minor.340.N_end__Node.Minor.200.S_end__seg0__0" begin="0.00" end="2400.00" fromJunction="Node.Minor.340.N_end" toJunction="Node.Minor.200.S_end" departLane="best_prob" departSpeed="max" period="exp(0.000079)"/>
  <flow id="vf_Node.Minor.340.N_end__Node.Minor.200.N_end__seg0__0" begin="0.00" end="2400.00" fromJunction="Node.Minor.340.N_end" toJunction="Node.Minor.200.N_end" departLane="best_prob" departSpeed="max" period="exp(0.000079)"/>
  <flow id="vf_Node.Minor.340.N_end__Node.Minor.540.N_end__seg0__0" begin="0.00" end="2400.00" fromJunction="Node.Minor.340.N_end" toJunction="Node.Minor.540.N_end" departLane="best_prob" departSpeed="max" period="exp(0.001354)"/>
  <flow id="vf_Node.Minor.340.N_end__Node.Minor.540.S_end__seg0__0" begin="0.00" end="2400.00" fromJunction="Node.Minor.340.N_end" toJunction="Node.Minor.540.S_end" departLane="best_prob" departSpeed="max" period="exp(0.001354)"/>
  <flow id="vf_Node.Minor.340.N_end__Node.Main.0.S__seg0__0" begin="0.00" end="2400.00" fromJunction="Node.Minor.340.N_end" toJunction="Node.Main.0.S" departLane="best_prob" departSpeed="max" period="exp(0.000633)"/>
  <flow id="vf_Node.Minor.340.N_end__Node.Main.740.N__seg0__0" begin="0.00" end="2400.00" fromJunction="Node.Minor.340.N_end" toJunction="Node.Main.740.N" departLane="best_prob" departSpeed="max" period="exp(0.010830)"/>
  <flow id="vf_Node.Minor.400.N_end__Node.Minor.400.S_end__seg0__0" begin="0.00" end="2400.00" fromJunction="Node.Minor.400.N_end" toJunction="Node.Minor.400.S_end" departLane="best_prob" departSpeed="max" period="exp(0.000833)"/>
  <flow id="vf_Node.Minor.400.N_end__Node.Minor.460.N_end__seg0__0" begin="0.00" end="2400.00" fromJunction="Node.Minor.400.N_end" toJunction="Node.Minor.460.N_end" departLane="best_prob" departSpeed="max" period="exp(0.000600)"/>
  <flow id="vf_Node.Minor.400.N_end__Node.Minor.460.S_end__seg0__0" begin="0.00" end="2400.00" fromJunction="Node.Minor.400.N_end" toJunction="Node.Minor.460.S_end" departLane="best_prob" departSpeed="max" period="exp(0.000150)"/>
  <flow id="vf_Node.Minor.400.N_end__Node.Minor.340.S_end__seg0__0" begin="0.00" end="2400.00" fromJunction="Node.Minor.400.N_end" toJunction="Node.Minor.340.S_end" departLane="best_prob" departSpeed="max" period="exp(0.000033)"/>
  <flow id="vf_Node.Minor.400.N_end__Node.Minor.340.N_end__seg0__0" begin="0.00" end="2400.00" fromJunction="Node.Minor.400.N_end" toJunction="Node.Minor.340.N_end" departLane="best_prob" departSpeed="max" period="exp(0.000008)"/>
  <flow id="vf_Node.Minor.400.N_end__Node.Minor.540.N_end__seg0__0" begin="0.00" end="2400.00" fromJunction="Node.Minor.400.N_end" toJunction="Node.Minor.540.N_end" departLane="best_prob" departSpeed="max" period="exp(0.001425)"/>
  <flow id="vf_Node.Minor.400.N_end__Node.Minor.540.S_end__seg0__0" begin="0.00" end="2400.00" fromJunction="Node.Minor.400.N_end" toJunction="Node.Minor.540.S_end" departLane="best_prob" departSpeed="max" period="exp(0.001425)"/>
  <flow id="vf_Node.Minor.400.N_end__Node.Minor.280.S_end__seg0__0" begin="0.00" end="2400.00" fromJunction="Node.Minor.400.N_end" toJunction="Node.Minor.280.S_end" departLane="best_prob" departSpeed="max" period="exp(0.000032)"/>
  <flow id="vf_Node.Minor.400.N_end__Node.Minor.280.N_end__seg0__0" begin="0.00" end="2400.00" fromJunction="Node.Minor.400.N_end" toJunction="Node.Minor.280.N_end" departLane="best_prob" departSpeed="max" period="exp(0.000008)"/>
  <flow id="vf_Node.Minor.400.N_end__Node.Minor.200.S_end__seg0__0" begin="0.00" end="2400.00" fromJunction="Node.Minor.400.N_end" toJunction="Node.Minor.200.S_end" departLane="best_prob" departSpeed="max" period="exp(0.000075)"/>
  <flow id="vf_Node.Minor.400.N_end__Node.Minor.200.N_end__seg0__0" begin="0.00" end="2400.00" fromJunction="Node.Minor.400.N_end" toJunction="Node.Minor.200.N_end" departLane="best_prob" departSpeed="max" period="exp(0.000075)"/>
  <flow id="vf_Node.Minor.400.N_end__Node.Main.740.N__seg0__0" begin="0.00" end="2400.00" fromJunction="Node.Minor.400.N_end" toJunction="Node.Main.740.N" departLane="best_prob" departSpeed="max" period="exp(0.011400)"/>
  <flow id="vf_Node.Minor.400.N_end__Node.Main.0.S__seg0__0" begin="0.00" end="2400.00" fromJunction="Node.Minor.400.N_end" toJunction="Node.Main.0.S" departLane="best_prob" departSpeed="max" period="exp(0.000602)"/>
  <flow id="vf_Node.Minor.460.N_end__Node.Minor.460.S_end__seg0__0" begin="0.00" end="2400.00" fromJunction="Node.Minor.460.N_end" toJunction="Node.Minor.460.S_end" departLane="best_prob" departSpeed="max" period="exp(0.000833)"/>
  <flow id="vf_Node.Minor.460.N_end__Node.Minor.540.N_end__seg0__0" begin="0.00" end="2400.00" fromJunction="Node.Minor.460.N_end" toJunction="Node.Minor.540.N_end" departLane="best_prob" departSpeed="max" period="exp(0.001500)"/>
  <flow id="vf_Node.Minor.460.N_end__Node.Minor.540.S_end__seg0__0" begin="0.00" end="2400.00" fromJunction="Node.Minor.460.N_end" toJunction="Node.Minor.540.S_end" departLane="best_prob" departSpeed="max" period="exp(0.001500)"/>
  <flow id="vf_Node.Minor.460.N_end__Node.Minor.400.S_end__seg0__0" begin="0.00" end="2400.00" fromJunction="Node.Minor.460.N_end" toJunction="Node.Minor.400.S_end" departLane="best_prob" departSpeed="max" period="exp(0.000033)"/>
  <flow id="vf_Node.Minor.460.N_end__Node.Minor.400.N_end__seg0__0" begin="0.00" end="2400.00" fromJunction="Node.Minor.460.N_end" toJunction="Node.Minor.400.N_end" departLane="best_prob" departSpeed="max" period="exp(0.000008)"/>
  <flow id="vf_Node.Minor.460.N_end__Node.Minor.340.S_end__seg0__0" begin="0.00" end="2400.00" fromJunction="Node.Minor.460.N_end" toJunction="Node.Minor.340.S_end" departLane="best_prob" departSpeed="max" period="exp(0.000032)"/>
  <flow id="vf_Node.Minor.460.N_end__Node.Minor.340.N_end__seg0__0" begin="0.00" end="2400.00" fromJunction="Node.Minor.460.N_end" toJunction="Node.Minor.340.N_end" departLane="best_prob" departSpeed="max" period="exp(0.000008)"/>
  <flow id="vf_Node.Minor.460.N_end__Node.Main.740.N__seg0__0" begin="0.00" end="2400.00" fromJunction="Node.Minor.460.N_end" toJunction="Node.Main.740.N" departLane="best_prob" departSpeed="max" period="exp(0.012000)"/>
  <flow id="vf_Node.Minor.460.N_end__Node.Minor.280.S_end__seg0__0" begin="0.00" end="2400.00" fromJunction="Node.Minor.460.N_end" toJunction="Node.Minor.280.S_end" departLane="best_prob" departSpeed="max" period="exp(0.000030)"/>
  <flow id="vf_Node.Minor.460.N_end__Node.Minor.280.N_end__seg0__0" begin="0.00" end="2400.00" fromJunction="Node.Minor.460.N_end" toJunction="Node.Minor.280.N_end" departLane="best_prob" departSpeed="max" period="exp(0.000008)"/>
  <flow id="vf_Node.Minor.460.N_end__Node.Minor.200.S_end__seg0__0" begin="0.00" end="2400.00" fromJunction="Node.Minor.460.N_end" toJunction="Node.Minor.200.S_end" departLane="best_prob" departSpeed="max" period="exp(0.000071)"/>
  <flow id="vf_Node.Minor.460.N_end__Node.Minor.200.N_end__seg0__0" begin="0.00" end="2400.00" fromJunction="Node.Minor.460.N_end" toJunction="Node.Minor.200.N_end" departLane="best_prob" departSpeed="max" period="exp(0.000071)"/>
  <flow id="vf_Node.Minor.460.N_end__Node.Main.0.S__seg0__0" begin="0.00" end="2400.00" fromJunction="Node.Minor.460.N_end" toJunction="Node.Main.0.S" departLane="best_prob" departSpeed="max" period="exp(0.000572)"/>
  <flow id="vf_Node.Minor.540.N_end__Node.Minor.540.S_end__seg0__0" begin="0.00" end="2400.00" fromJunction="Node.Minor.540.N_end" toJunction="Node.Minor.540.S_end" departLane="best_prob" departSpeed="max" period="exp(0.155556)"/>
  <flow id="vf_Node.Minor.540.N_end__Node.Minor.460.S_end__seg0__0" begin="0.00" end="2400.00" fromJunction="Node.Minor.540.N_end" toJunction="Node.Minor.460.S_end" departLane="best_prob" departSpeed="max" period="exp(0.001333)"/>
  <flow id="vf_Node.Minor.540.N_end__Node.Minor.460.N_end__seg0__0" begin="0.00" end="2400.00" fromJunction="Node.Minor.540.N_end" toJunction="Node.Minor.460.N_end" departLane="best_prob" departSpeed="max" period="exp(0.000333)"/>
  <flow id="vf_Node.Minor.540.N_end__Node.Main.740.N__seg0__0" begin="0.00" end="2400.00" fromJunction="Node.Minor.540.N_end" toJunction="Node.Main.740.N" departLane="best_prob" departSpeed="max" period="exp(0.033333)"/>
  <flow id="vf_Node.Minor.540.N_end__Node.Minor.400.S_end__seg0__0" begin="0.00" end="2400.00" fromJunction="Node.Minor.540.N_end" toJunction="Node.Minor.400.S_end" departLane="best_prob" departSpeed="max" period="exp(0.001267)"/>
  <flow id="vf_Node.Minor.540.N_end__Node.Minor.400.N_end__seg0__0" begin="0.00" end="2400.00" fromJunction="Node.Minor.540.N_end" toJunction="Node.Minor.400.N_end" departLane="best_prob" departSpeed="max" period="exp(0.000317)"/>
  <flow id="vf_Node.Minor.540.N_end__Node.Minor.340.S_end__seg0__0" begin="0.00" end="2400.00" fromJunction="Node.Minor.540.N_end" toJunction="Node.Minor.340.S_end" departLane="best_prob" departSpeed="max" period="exp(0.001203)"/>
  <flow id="vf_Node.Minor.540.N_end__Node.Minor.340.N_end__seg0__0" begin="0.00" end="2400.00" fromJunction="Node.Minor.540.N_end" toJunction="Node.Minor.340.N_end" departLane="best_prob" departSpeed="max" period="exp(0.000301)"/>
  <flow id="vf_Node.Minor.540.N_end__Node.Minor.280.S_end__seg0__0" begin="0.00" end="2400.00" fromJunction="Node.Minor.540.N_end" toJunction="Node.Minor.280.S_end" departLane="best_prob" departSpeed="max" period="exp(0.001143)"/>
  <flow id="vf_Node.Minor.540.N_end__Node.Minor.280.N_end__seg0__0" begin="0.00" end="2400.00" fromJunction="Node.Minor.540.N_end" toJunction="Node.Minor.280.N_end" departLane="best_prob" departSpeed="max" period="exp(0.000286)"/>
  <flow id="vf_Node.Minor.540.N_end__Node.Minor.200.S_end__seg0__0" begin="0.00" end="2400.00" fromJunction="Node.Minor.540.N_end" toJunction="Node.Minor.200.S_end" departLane="best_prob" departSpeed="max" period="exp(0.002715)"/>
  <flow id="vf_Node.Minor.540.N_end__Node.Minor.200.N_end__seg0__0" begin="0.00" end="2400.00" fromJunction="Node.Minor.540.N_end" toJunction="Node.Minor.200.N_end" departLane="best_prob" departSpeed="max" period="exp(0.002715)"/>
  <flow id="vf_Node.Minor.540.N_end__Node.Main.0.S__seg0__0" begin="0.00" end="2400.00" fromJunction="Node.Minor.540.N_end" toJunction="Node.Main.0.S" departLane="best_prob" departSpeed="max" period="exp(0.021720)"/>
  <flow id="vf_Node.Minor.200.S_end__Node.Minor.200.N_end__seg0__0" begin="0.00" end="2400.00" fromJunction="Node.Minor.200.S_end" toJunction="Node.Minor.200.N_end" departLane="best_prob" departSpeed="max" period="exp(0.155556)"/>
  <flow id="vf_Node.Minor.200.S_end__Node.Minor.280.N_end__seg0__0" begin="0.00" end="2400.00" fromJunction="Node.Minor.200.S_end" toJunction="Node.Minor.280.N_end" departLane="best_prob" departSpeed="max" period="exp(0.001333)"/>
  <flow id="vf_Node.Minor.200.S_end__Node.Minor.280.S_end__seg0__0" begin="0.00" end="2400.00" fromJunction="Node.Minor.200.S_end" toJunction="Node.Minor.280.S_end" departLane="best_prob" departSpeed="max" period="exp(0.000333)"/>
  <flow id="vf_Node.Minor.200.S_end__Node.Main.0.S__seg0__0" begin="0.00" end="2400.00" fromJunction="Node.Minor.200.S_end" toJunction="Node.Main.0.S" departLane="best_prob" departSpeed="max" period="exp(0.033333)"/>
  <flow id="vf_Node.Minor.200.S_end__Node.Minor.340.N_end__seg0__0" begin="0.00" end="2400.00" fromJunction="Node.Minor.200.S_end" toJunction="Node.Minor.340.N_end" departLane="best_prob" departSpeed="max" period="exp(0.001267)"/>
  <flow id="vf_Node.Minor.200.S_end__Node.Minor.340.S_end__seg0__0" begin="0.00" end="2400.00" fromJunction="Node.Minor.200.S_end" toJunction="Node.Minor.340.S_end" departLane="best_prob" departSpeed="max" period="exp(0.000317)"/>
  <flow id="vf_Node.Minor.200.S_end__Node.Minor.400.N_end__seg0__0" begin="0.00" end="2400.00" fromJunction="Node.Minor.200.S_end" toJunction="Node.Minor.400.N_end" departLane="best_prob" departSpeed="max" period="exp(0.001203)"/>
  <flow id="vf_Node.Minor.200.S_end__Node.Minor.400.S_end__seg0__0" begin="0.00" end="2400.00" fromJunction="Node.Minor.200.S_end" toJunction="Node.Minor.400.S_end" departLane="best_prob" departSpeed="max" period="exp(0.000301)"/>
  <flow id="vf_Node.Minor.200.S_end__Node.Minor.460.N_end__seg0__0" begin="0.00" end="2400.00" fromJunction="Node.Minor.200.S_end" toJunction="Node.Minor.460.N_end" departLane="best_prob" departSpeed="max" period="exp(0.001143)"/>
  <flow id="vf_Node.Minor.200.S_end__Node.Minor.460.S_end__seg0__0" begin="0.00" end="2400.00" fromJunction="Node.Minor.200.S_end" toJunction="Node.Minor.460.S_end" departLane="best_prob" departSpeed="max" period="exp(0.000286)"/>
  <flow id="vf_Node.Minor.200.S_end__Node.Minor.540.N_end__seg0__0" begin="0.00" end="2400.00" fromJunction="Node.Minor.200.S_end" toJunction="Node.Minor.540.N_end" departLane="best_prob" departSpeed="max" period="exp(0.002715)"/>
  <flow id="vf_Node.Minor.200.S_end__Node.Minor.540.S_end__seg0__0" begin="0.00" end="2400.00" fromJunction="Node.Minor.200.S_end" toJunction="Node.Minor.540.S_end" departLane="best_prob" departSpeed="max" period="exp(0.002715)"/>
  <flow id="vf_Node.Minor.200.S_end__Node.Main.740.N__seg0__0" begin="0.00" end="2400.00" fromJunction="Node.Minor.200.S_end" toJunction="Node.Main.740.N" departLane="best_prob" departSpeed="max" period="exp(0.021720)"/>
  <flow id="vf_Node.Minor.280.S_end__Node.Minor.280.N_end__seg0__0" begin="0.00" end="2400.00" fromJunction="Node.Minor.280.S_end" toJunction="Node.Minor.280.N_end" departLane="best_prob" departSpeed="max" period="exp(0.000833)"/>
  <flow id="vf_Node.Minor.280.S_end__Node.Minor.200.S_end__seg0__0" begin="0.00" end="2400.00" fromJunction="Node.Minor.280.S_end" toJunction="Node.Minor.200.S_end" departLane="best_prob" departSpeed="max" period="exp(0.001500)"/>
  <flow id="vf_Node.Minor.280.S_end__Node.Minor.200.N_end__seg0__0" begin="0.00" end="2400.00" fromJunction="Node.Minor.280.S_end" toJunction="Node.Minor.200.N_end" departLane="best_prob" departSpeed="max" period="exp(0.001500)"/>
  <flow id="vf_Node.Minor.280.S_end__Node.Minor.340.N_end__seg0__0" begin="0.00" end="2400.00" fromJunction="Node.Minor.280.S_end" toJunction="Node.Minor.340.N_end" departLane="best_prob" departSpeed="max" period="exp(0.000033)"/>
  <flow id="vf_Node.Minor.280.S_end__Node.Minor.340.S_end__seg0__0" begin="0.00" end="2400.00" fromJunction="Node.Minor.280.S_end" toJunction="Node.Minor.340.S_end" departLane="best_prob" departSpeed="max" period="exp(0.000008)"/>
  <flow id="vf_Node.Minor.280.S_end__Node.Minor.400.N_end__seg0__0" begin="0.00" end="2400.00" fromJunction="Node.Minor.280.S_end" toJunction="Node.Minor.400.N_end" departLane="best_prob" departSpeed="max" period="exp(0.000032)"/>
  <flow id="vf_Node.Minor.280.S_end__Node.Minor.400.S_end__seg0__0" begin="0.00" end="2400.00" fromJunction="Node.Minor.280.S_end" toJunction="Node.Minor.400.S_end" departLane="best_prob" departSpeed="max" period="exp(0.000008)"/>
  <flow id="vf_Node.Minor.280.S_end__Node.Main.0.S__seg0__0" begin="0.00" end="2400.00" fromJunction="Node.Minor.280.S_end" toJunction="Node.Main.0.S" departLane="best_prob" departSpeed="max" period="exp(0.012000)"/>
  <flow id="vf_Node.Minor.280.S_end__Node.Minor.460.N_end__seg0__0" begin="0.00" end="2400.00" fromJunction="Node.Minor.280.S_end" toJunction="Node.Minor.460.N_end" departLane="best_prob" departSpeed="max" period="exp(0.000030)"/>
  <flow id="vf_Node.Minor.280.S_end__Node.Minor.460.S_end__seg0__0" begin="0.00" end="2400.00" fromJunction="Node.Minor.280.S_end" toJunction="Node.Minor.460.S_end" departLane="best_prob" departSpeed="max" period="exp(0.000008)"/>
  <flow id="vf_Node.Minor.280.S_end__Node.Minor.540.N_end__seg0__0" begin="0.00" end="2400.00" fromJunction="Node.Minor.280.S_end" toJunction="Node.Minor.540.N_end" departLane="best_prob" departSpeed="max" period="exp(0.000071)"/>
  <flow id="vf_Node.Minor.280.S_end__Node.Minor.540.S_end__seg0__0" begin="0.00" end="2400.00" fromJunction="Node.Minor.280.S_end" toJunction="Node.Minor.540.S_end" departLane="best_prob" departSpeed="max" period="exp(0.000071)"/>
  <flow id="vf_Node.Minor.280.S_end__Node.Main.740.N__seg0__0" begin="0.00" end="2400.00" fromJunction="Node.Minor.280.S_end" toJunction="Node.Main.740.N" departLane="best_prob" departSpeed="max" period="exp(0.000572)"/>
  <flow id="vf_Node.Minor.340.S_end__Node.Minor.340.N_end__seg0__0" begin="0.00" end="2400.00" fromJunction="Node.Minor.340.S_end" toJunction="Node.Minor.340.N_end" departLane="best_prob" departSpeed="max" period="exp(0.000833)"/>