<nodes>
  <node id="Node.0.MainN" x="0" y="3.0"/>
  <node id="Node.0.MainS" x="0" y="-3.0"/>
  <node id="Node.30.MainN" x="30" y="3.0"/>
  <node id="Node.30.MainS" x="30" y="-3.0"/>
  <node id="Node.75.MainN" x="75" y="3.0" type="traffic_light" tl="Cluster.75.Main"/>
  <node id="Node.75.MainS" x="75" y="-3.0" type="traffic_light" tl="Cluster.75.Main"/>
  <node id="Node.120.MainN" x="120" y="3.0"/>
  <node id="Node.120.MainS" x="120" y="-3.0"/>
  <node id="Node.180.MainN" x="180" y="3.0"/>
  <node id="Node.180.MainS" x="180" y="-3.0"/>
  <node id="Node.225.MainN" x="225" y="3.0" type="traffic_light" tl="Cluster.225.Main"/>
  <node id="Node.225.MainS" x="225" y="-3.0" type="traffic_light" tl="Cluster.225.Main"/>
  <node id="Node.270.MainN" x="270" y="3.0"/>
  <node id="Node.270.MainS" x="270" y="-3.0"/>
  <node id="Node.300.MainN" x="300" y="3.0"/>
  <node id="Node.300.MainS" x="300" y="-3.0"/>
  <join id="Cluster.30.Main" x="30" y="0" nodes="Node.30.MainN Node.30.MainS"/>  <!-- reasons: lane_change -->
  <join id="Cluster.75.Main" x="75" y="0" nodes="Node.75.MainN Node.75.MainS" type="traffic_light" tl="Cluster.75.Main"/>  <!-- reasons: junction,lane_change -->
  <join id="Cluster.120.Main" x="120" y="0" nodes="Node.120.MainN Node.120.MainS"/>  <!-- reasons: lane_change -->
  <join id="Cluster.180.Main" x="180" y="0" nodes="Node.180.MainN Node.180.MainS"/>  <!-- reasons: lane_change -->
  <join id="Cluster.225.Main" x="225" y="0" nodes="Node.225.MainN Node.225.MainS" type="traffic_light" tl="Cluster.225.Main"/>  <!-- reasons: junction,lane_change -->
  <join id="Cluster.270.Main" x="270" y="0" nodes="Node.270.MainN Node.270.MainS"/>  <!-- reasons: lane_change -->
  <node id="Node.75.MinorNEdge" x="75" y="50"/>  <!-- minor dead_end (N), offset=50 from y=0 -->
  <node id="Node.75.MinorSEdge" x="75" y="-50"/>  <!-- minor dead_end (S), offset=50 from y=0 -->
  <node id="Node.225.MinorNEdge" x="225" y="50"/>  <!-- minor dead_end (N), offset=50 from y=0 -->
</nodes>
