<tlLogics version="1.20" xmlns:xsi="http://www.w3.org/2001/XMLSchema-instance" xsi:noNamespaceSchemaLocation="http://sumo.dlr.de/xsd/tllogic_file.xsd">
    <tlLogic id="Cluster.150.Main" type="static" programID="0" offset="0">
        <phase duration="7" state="rrrrrrrrrrrGrrGrGGrG"/>
        <phase duration="3" state="rrrrrrrrrrryrrGrrGrr"/>
        <phase duration="7" state="rrrrGrrrrrrrrrGGrGGr"/>
        <phase duration="3" state="rrrrGrrrrrrrrrGrrGrr"/>
        <phase duration="7" state="rrrrGrrrrrrGrrGrrGrr"/>
        <phase duration="3" state="rrrryrrrrrryrrGrrGrr"/>
        <phase duration="7" state="rrrGrrrrrrGrrrGGrGrG"/>
        <phase duration="3" state="rrryrrrrrryrrrGGrGrG"/>
        <phase duration="7" state="rrrrrgGrrrrrgGGGrGrG"/>
        <phase duration="3" state="rrrrryyrrrrryyrGrrrG"/>
        <phase duration="7" state="rGrrrrrrGrrrrrrGGrGG"/>
        <phase duration="3" state="ryrrrrrryrrrrrrGGrGG"/>
        <phase duration="7" state="GrrrrrrGrrrrrrrGGrGG"/>
        <phase duration="3" state="yrrrrrryrrrrrrrGGrGG"/>
        <phase duration="7" state="rrgrrrrrrgrrrrrGGrGG"/>
        <phase duration="3" state="rryrrrrrryrrrrrGGrGG"/>
        <phase duration="7" state="rrrrrrrrrrrrrrGGGGGG"/>
        <phase duration="3" state="rrrrrrrrrrrrrrGrGGrG"/>
    </tlLogic>
    <connection from="Edge.MinorS.NB.150" to="Edge.Main.WB.150-100" fromLane="1" toLane="1" tl="Cluster.150.Main" linkIndex="0"/>
    <connection from="Edge.MinorS.NB.150" to="Edge.MinorN.NB.150" fromLane="2" toLane="1" tl="Cluster.150.Main" linkIndex="1"/>
    <connection from="Edge.MinorS.NB.150" to="Edge.Main.EB.150-200" fromLane="3" toLane="1" tl="Cluster.150.Main" linkIndex="2"/>
    <connection from="Edge.Main.WB.200-150" to="Edge.MinorS.SB.150" fromLane="1" toLane="1" tl="Cluster.150.Main" linkIndex="3"/>
    <connection from="Edge.Main.WB.200-150" to="Edge.Main.WB.150-100" fromLane="2" toLane="1" tl="Cluster.150.Main" linkIndex="4"/>
    <connection from="Edge.Main.WB.200-150" to="Edge.MinorN.NB.150" fromLane="3" toLane="1" tl="Cluster.150.Main" linkIndex="5"/>
    <connection from="Edge.Main.WB.200-150" to="Edge.Main.EB.150-200" fromLane="3" toLane="1" tl="Cluster.150.Main" linkIndex="6"/>
    <connection from="Edge.MinorN.SB.150" to="Edge.Main.EB.150-200" fromLane="1" toLane="1" tl="Cluster.150.Main" linkIndex="7"/>
    <connection from="Edge.MinorN.SB.150" to="Edge.MinorS.SB.150" fromLane="2" toLane="1" tl="Cluster.150.Main" linkIndex="8"/>
    <connection from="Edge.MinorN.SB.150" to="Edge.Main.WB.150-100" fromLane="3" toLane="1" tl="Cluster.150.Main" linkIndex="9"/>
    <connection from="Edge.Main.EB.100-150" to="Edge.MinorN.NB.150" fromLane="1" toLane="1" tl="Cluster.150.Main" linkIndex="10"/>
    <connection from="Edge.Main.EB.100-150" to="Edge.Main.EB.150-200" fromLane="2" toLane="1" tl="Cluster.150.Main" linkIndex="11"/>
    <connection from="Edge.Main.EB.100-150" to="Edge.MinorS.SB.150" fromLane="3" toLane="1" tl="Cluster.150.Main" linkIndex="12"/>
    <connection from="Edge.Main.EB.100-150" to="Edge.Main.WB.150-100" fromLane="3" toLane="1" tl="Cluster.150.Main" linkIndex="13"/>
</tlLogics>