<?xml version="1.0" encoding="UTF-8"?>

<!-- generated on 2025-10-29 23:40:57 by Eclipse SUMO netconvert Version 1.24.0
<netconvertConfiguration xmlns:xsi="http://www.w3.org/2001/XMLSchema-instance" xsi:noNamespaceSchemaLocation="http://sumo.dlr.de/xsd/netconvertConfiguration.xsd">

    <input>
        <node-files value="2-cooked.nod.xml"/>
        <edge-files value="2-cooked.edg.xml"/>
        <connection-files value="1-generated.con.xml"/>
        <tllogic-files value="1-generated.tll.xml"/>
    </input>

    <output>
        <output-file value="3-n+e+c+t.net.xml"/>
    </output>

    <processing>
        <lefthand value="true"/>
    </processing>

</netconvertConfiguration>
-->

<net version="1.20" junctionCornerDetail="5" lefthand="true" limitTurnSpeed="5.50" xmlns:xsi="http://www.w3.org/2001/XMLSchema-instance" xsi:noNamespaceSchemaLocation="http://sumo.dlr.de/xsd/net_file.xsd">

    <location netOffset="0.00,50.00" convBoundary="0.00,-0.00,300.00,100.00" origBoundary="0.00,-50.00,300.00,50.00" projParameter="!"/>

    <edge id=":Cluster.Main.120_0" function="internal">
        <lane id=":Cluster.Main.120_0_0" index="0" disallow="pedestrian" speed="13.89" length="8.54" shape="124.00,42.20 121.54,41.70 120.00,40.60 118.46,39.50 116.00,39.00"/>
        <lane id=":Cluster.Main.120_0_1" index="1" disallow="pedestrian" speed="13.89" length="8.54" shape="124.00,45.40 121.54,44.90 120.00,43.80 118.46,42.70 116.00,42.20"/>
        <lane id=":Cluster.Main.120_0_2" index="2" disallow="pedestrian" speed="13.89" length="8.54" shape="124.00,45.40 116.00,45.40"/>
    </edge>
    <edge id=":Cluster.Main.120_3" function="internal">
        <lane id=":Cluster.Main.120_3_0" index="0" disallow="pedestrian" speed="13.89" length="8.00" shape="116.00,57.80 124.00,57.80"/>
        <lane id=":Cluster.Main.120_3_1" index="1" disallow="pedestrian" speed="13.89" length="8.00" shape="116.00,54.60 124.00,54.60"/>
    </edge>
    <edge id=":Cluster.Main.120_w0" function="walkingarea">
        <lane id=":Cluster.Main.120_w0_0" index="0" allow="pedestrian" speed="2.78" length="8.62" width="2.00" shape="116.00,37.40 116.00,35.40 124.00,38.60 124.00,40.60 122.21,40.36 120.97,39.77 120.00,39.00 119.03,38.23 117.79,37.64"/>
    </edge>
    <edge id=":Cluster.Main.120_w1" function="walkingarea">
        <lane id=":Cluster.Main.120_w1_0" index="0" allow="pedestrian" speed="2.78" length="8.00" width="2.00" shape="124.00,59.40 124.00,61.40 116.00,61.40 116.00,59.40"/>
    </edge>
    <edge id=":Cluster.Main.180_0" function="internal">
        <lane id=":Cluster.Main.180_0_0" index="0" disallow="pedestrian" speed="13.89" length="8.00" shape="184.00,42.20 176.00,42.20"/>
        <lane id=":Cluster.Main.180_0_1" index="1" disallow="pedestrian" speed="13.89" length="8.00" shape="184.00,45.40 176.00,45.40"/>
    </edge>
    <edge id=":Cluster.Main.180_2" function="internal">
        <lane id=":Cluster.Main.180_2_0" index="0" disallow="pedestrian" speed="13.89" length="8.54" shape="176.00,57.80 178.46,58.30 180.00,59.40 181.54,60.50 184.00,61.00"/>
        <lane id=":Cluster.Main.180_2_1" index="1" disallow="pedestrian" speed="13.89" length="8.54" shape="176.00,54.60 178.46,55.10 180.00,56.20 181.54,57.30 184.00,57.80"/>
        <lane id=":Cluster.Main.180_2_2" index="2" disallow="pedestrian" speed="13.89" length="8.54" shape="176.00,54.60 184.00,54.60"/>
    </edge>
    <edge id=":Cluster.Main.180_w0" function="walkingarea">
        <lane id=":Cluster.Main.180_w0_0" index="0" allow="pedestrian" speed="2.78" length="8.00" width="2.00" shape="176.00,40.60 176.00,38.60 184.00,38.60 184.00,40.60"/>
    </edge>
    <edge id=":Cluster.Main.180_w1" function="walkingarea">
        <lane id=":Cluster.Main.180_w1_0" index="0" allow="pedestrian" speed="2.78" length="8.62" width="2.00" shape="184.00,62.60 184.00,64.60 176.00,61.40 176.00,59.40 177.79,59.64 179.03,60.23 180.00,61.00 180.97,61.77 182.21,62.36"/>
    </edge>
    <edge id=":Cluster.Main.225_0" function="internal">
        <lane id=":Cluster.Main.225_0_0" index="0" disallow="pedestrian" speed="13.89" length="17.98" shape="235.40,39.00 230.13,39.50 226.60,40.60 223.07,41.70 217.80,42.20"/>
        <lane id=":Cluster.Main.225_0_1" index="1" disallow="pedestrian" speed="13.89" length="17.98" shape="235.40,42.20 230.13,42.70 226.60,43.80 223.07,44.90 217.80,45.40"/>
    </edge>
    <edge id=":Cluster.Main.225_2" function="internal">
        <lane id=":Cluster.Main.225_2_0" index="0" disallow="pedestrian" speed="10.89" length="23.67" shape="235.40,45.40 230.15,46.73 226.40,50.70 224.15,57.32 223.68,63.10"/>
    </edge>
    <edge id=":Cluster.Main.225_3" function="internal">
        <lane id=":Cluster.Main.225_3_0" index="0" disallow="pedestrian" speed="5.48" length="13.44" shape="235.40,45.40 231.95,47.70 230.80,50.00 231.95,52.30 235.40,54.60"/>
    </edge>
    <edge id=":Cluster.Main.225_10" function="internal">
        <lane id=":Cluster.Main.225_10_0" index="0" disallow="pedestrian" speed="10.89" length="3.51" shape="223.68,63.10 223.40,66.60"/>
    </edge>
    <edge id=":Cluster.Main.225_4" function="internal">
        <lane id=":Cluster.Main.225_4_0" index="0" disallow="pedestrian" speed="7.33" length="7.77" shape="229.80,66.60 230.15,62.75 231.20,60.00 231.90,59.34"/>
    </edge>
    <edge id=":Cluster.Main.225_5" function="internal">
        <lane id=":Cluster.Main.225_5_0" index="0" disallow="pedestrian" speed="10.47" length="21.32" shape="226.60,66.60 226.05,57.33 224.40,50.70 221.65,46.73 221.30,46.60"/>
    </edge>
    <edge id=":Cluster.Main.225_11" function="internal">
        <lane id=":Cluster.Main.225_11_0" index="0" disallow="pedestrian" speed="7.33" length="3.95" shape="231.90,59.34 232.95,58.35 235.40,57.80"/>
    </edge>
    <edge id=":Cluster.Main.225_12" function="internal">
        <lane id=":Cluster.Main.225_12_0" index="0" disallow="pedestrian" speed="10.47" length="3.70" shape="221.30,46.60 217.80,45.40"/>
    </edge>
    <edge id=":Cluster.Main.225_6" function="internal">
        <lane id=":Cluster.Main.225_6_0" index="0" disallow="pedestrian" speed="6.51" length="5.33" shape="217.80,61.00 220.25,61.35 222.00,62.40 222.42,63.10"/>
    </edge>
    <edge id=":Cluster.Main.225_7" function="internal">
        <lane id=":Cluster.Main.225_7_0" index="0" disallow="pedestrian" speed="13.89" length="17.60" shape="217.80,57.80 235.40,57.80"/>
        <lane id=":Cluster.Main.225_7_1" index="1" disallow="pedestrian" speed="13.89" length="17.60" shape="217.80,54.60 235.40,54.60"/>
    </edge>
    <edge id=":Cluster.Main.225_9" function="internal">
        <lane id=":Cluster.Main.225_9_0" index="0" disallow="pedestrian" speed="5.48" length="13.44" shape="217.80,54.60 221.25,52.30 222.40,50.00 221.25,47.70 217.80,45.40"/>
    </edge>
    <edge id=":Cluster.Main.225_13" function="internal">
        <lane id=":Cluster.Main.225_13_0" index="0" disallow="pedestrian" speed="6.51" length="3.70" shape="222.42,63.10 223.05,64.15 223.40,66.60"/>
    </edge>
    <edge id=":Cluster.Main.225_c0" function="crossing" crossingEdges="Edge.Main.WB.225-270">
        <lane id=":Cluster.Main.225_c0_0" index="0" allow="pedestrian" speed="2.78" length="9.60" width="3.50" shape="233.65,47.00 233.65,37.40" outlineShape="235.40,-47.00 235.40,-37.40 231.90,-37.62 231.90,-47.00 235.40,-47.00 231.90,-47.00"/>
    </edge>
    <edge id=":Cluster.Main.225_c1" function="crossing" crossingEdges="Edge.Main.EB.225-270">
        <lane id=":Cluster.Main.225_c1_0" index="0" allow="pedestrian" speed="2.78" length="6.40" width="3.50" shape="233.65,59.40 233.65,53.00" outlineShape="235.40,-59.40 235.40,-53.00 231.90,-53.00 235.40,-53.00 231.90,-53.00 231.90,-62.46 232.40,-61.20 233.18,-60.20 234.18,-59.60"/>
    </edge>
    <edge id=":Cluster.Main.225_c2" function="crossing" crossingEdges="Edge.Minor.225.from.N Edge.Minor.225.to.N">
        <lane id=":Cluster.Main.225_c2_0" index="0" allow="pedestrian" speed="2.78" length="9.60" width="3.50" shape="221.80,64.85 231.40,64.85" outlineShape="221.70,-66.60 231.50,-66.60 231.51,-64.40 231.75,-63.10 220.10,-63.10 220.80,-63.60 221.36,-64.38 221.69,-65.38"/>
    </edge>
    <edge id=":Cluster.Main.225_c3" function="crossing" crossingEdges="Edge.Main.EB.180-225">
        <lane id=":Cluster.Main.225_c3_0" index="0" allow="pedestrian" speed="2.78" length="9.60" width="3.50" shape="219.55,53.00 219.55,62.60" outlineShape="217.80,-53.00 217.80,-62.60 219.02,-62.71 220.02,-63.04 220.80,-63.60 221.30,-64.30 221.30,-53.00 217.80,-53.00 221.30,-53.00"/>
    </edge>
    <edge id=":Cluster.Main.225_c4" function="crossing" crossingEdges="Edge.Main.WB.180-225">
        <lane id=":Cluster.Main.225_c4_0" index="0" allow="pedestrian" speed="2.78" length="6.40" width="3.50" shape="219.55,40.60 219.55,47.00" outlineShape="217.80,-40.60 217.80,-47.00 221.30,-47.00 217.80,-47.00 221.30,-47.00 221.30,-40.38"/>
    </edge>
    <edge id=":Cluster.Main.225_w0" function="walkingarea">
        <lane id=":Cluster.Main.225_w0_0" index="0" allow="pedestrian" speed="2.78" length="11.46" width="3.50" shape="217.80,40.60 217.80,38.60 235.40,35.40 235.40,37.40 231.61,37.64 228.85,38.23 226.60,39.00 224.35,39.77 221.59,40.36"/>
    </edge>
    <edge id=":Cluster.Main.225_w1" function="walkingarea">
        <lane id=":Cluster.Main.225_w1_0" index="0" allow="pedestrian" speed="2.78" length="5.02" width="3.50" shape="235.40,59.40 235.40,61.40 233.40,66.60 231.40,66.60 231.51,64.40 231.84,62.60 232.40,61.20 233.18,60.20 234.18,59.60"/>
    </edge>
    <edge id=":Cluster.Main.225_w2" function="walkingarea">
        <lane id=":Cluster.Main.225_w2_0" index="0" allow="pedestrian" speed="2.78" length="3.31" width="3.50" shape="221.80,66.60 219.80,66.60 217.80,64.60 217.80,62.60 219.02,62.71 220.02,63.04 220.80,63.60 221.36,64.38 221.69,65.38"/>
    </edge>
    <edge id=":Cluster.Main.225_w3" function="walkingarea">
        <lane id=":Cluster.Main.225_w3_0" index="0" allow="pedestrian" speed="2.78" length="6.00" width="3.50" shape="231.90,53.00 235.40,53.00 235.40,47.00 231.90,47.00"/>
    </edge>
    <edge id=":Cluster.Main.225_w4" function="walkingarea">
        <lane id=":Cluster.Main.225_w4_0" index="0" allow="pedestrian" speed="2.78" length="6.00" width="3.50" shape="221.30,47.00 217.80,47.00 217.80,53.00 221.30,53.00"/>
    </edge>
    <edge id=":Cluster.Main.270_0" function="internal">
        <lane id=":Cluster.Main.270_0_0" index="0" disallow="pedestrian" speed="13.89" length="8.54" shape="274.00,42.20 271.54,41.70 270.00,40.60 268.46,39.50 266.00,39.00"/>
        <lane id=":Cluster.Main.270_0_1" index="1" disallow="pedestrian" speed="13.89" length="8.54" shape="274.00,45.40 271.54,44.90 270.00,43.80 268.46,42.70 266.00,42.20"/>
        <lane id=":Cluster.Main.270_0_2" index="2" disallow="pedestrian" speed="13.89" length="8.54" shape="274.00,45.40 266.00,45.40"/>
    </edge>
    <edge id=":Cluster.Main.270_3" function="internal">
        <lane id=":Cluster.Main.270_3_0" index="0" disallow="pedestrian" speed="13.89" length="8.00" shape="266.00,57.80 274.00,57.80"/>
        <lane id=":Cluster.Main.270_3_1" index="1" disallow="pedestrian" speed="13.89" length="8.00" shape="266.00,54.60 274.00,54.60"/>
    </edge>
    <edge id=":Cluster.Main.270_w0" function="walkingarea">
        <lane id=":Cluster.Main.270_w0_0" index="0" allow="pedestrian" speed="2.78" length="8.62" width="2.00" shape="266.00,37.40 266.00,35.40 274.00,38.60 274.00,40.60 272.21,40.36 270.97,39.77 270.00,39.00 269.03,38.23 267.79,37.64"/>
    </edge>
    <edge id=":Cluster.Main.270_w1" function="walkingarea">
        <lane id=":Cluster.Main.270_w1_0" index="0" allow="pedestrian" speed="2.78" length="8.00" width="2.00" shape="274.00,59.40 274.00,61.40 266.00,61.40 266.00,59.40"/>
    </edge>
    <edge id=":Cluster.Main.30_0" function="internal">
        <lane id=":Cluster.Main.30_0_0" index="0" disallow="pedestrian" speed="13.89" length="8.00" shape="34.00,42.20 26.00,42.20"/>
        <lane id=":Cluster.Main.30_0_1" index="1" disallow="pedestrian" speed="13.89" length="8.00" shape="34.00,45.40 26.00,45.40"/>
    </edge>
    <edge id=":Cluster.Main.30_2" function="internal">
        <lane id=":Cluster.Main.30_2_0" index="0" disallow="pedestrian" speed="13.89" length="8.54" shape="26.00,57.80 28.46,58.30 30.00,59.40 31.54,60.50 34.00,61.00"/>
        <lane id=":Cluster.Main.30_2_1" index="1" disallow="pedestrian" speed="13.89" length="8.54" shape="26.00,54.60 28.46,55.10 30.00,56.20 31.54,57.30 34.00,57.80"/>
        <lane id=":Cluster.Main.30_2_2" index="2" disallow="pedestrian" speed="13.89" length="8.54" shape="26.00,54.60 34.00,54.60"/>
    </edge>
    <edge id=":Cluster.Main.30_w0" function="walkingarea">
        <lane id=":Cluster.Main.30_w0_0" index="0" allow="pedestrian" speed="2.78" length="8.00" width="2.00" shape="26.00,40.60 26.00,38.60 34.00,38.60 34.00,40.60"/>
    </edge>
    <edge id=":Cluster.Main.30_w1" function="walkingarea">
        <lane id=":Cluster.Main.30_w1_0" index="0" allow="pedestrian" speed="2.78" length="8.62" width="2.00" shape="34.00,62.60 34.00,64.60 26.00,61.40 26.00,59.40 27.79,59.64 29.03,60.23 30.00,61.00 30.97,61.77 32.21,62.36"/>
    </edge>
    <edge id=":Cluster.Main.75_0" function="internal">
        <lane id=":Cluster.Main.75_0_0" index="0" disallow="pedestrian" speed="7.33" length="11.73" shape="70.20,33.40 69.85,37.25 68.80,40.00 67.05,41.65 64.60,42.20"/>
    </edge>
    <edge id=":Cluster.Main.75_1" function="internal">
        <lane id=":Cluster.Main.75_1_0" index="0" disallow="pedestrian" speed="13.89" length="33.38" shape="70.20,33.40 70.70,43.51 71.80,51.88 72.90,59.30 73.40,66.60"/>
    </edge>
    <edge id=":Cluster.Main.75_2" function="internal">
        <lane id=":Cluster.Main.75_2_0" index="0" disallow="pedestrian" speed="10.89" length="13.11" shape="73.40,33.40 74.15,42.67 75.37,46.28"/>
    </edge>
    <edge id=":Cluster.Main.75_14" function="internal">
        <lane id=":Cluster.Main.75_14_0" index="0" disallow="pedestrian" speed="10.89" length="14.07" shape="75.37,46.28 76.40,49.30 80.15,53.27 85.40,54.60"/>
    </edge>
    <edge id=":Cluster.Main.75_3" function="internal">
        <lane id=":Cluster.Main.75_3_0" index="0" disallow="pedestrian" speed="7.33" length="7.77" shape="85.40,39.00 81.55,38.65 78.80,37.60 78.14,36.90"/>
    </edge>
    <edge id=":Cluster.Main.75_4" function="internal">
        <lane id=":Cluster.Main.75_4_0" index="0" disallow="pedestrian" speed="13.89" length="21.12" shape="85.40,39.00 79.19,39.50 75.00,40.60 70.81,41.70 64.60,42.20"/>
        <lane id=":Cluster.Main.75_4_1" index="1" disallow="pedestrian" speed="13.89" length="21.12" shape="85.40,42.20 79.19,42.70 75.00,43.80 70.81,44.90 64.60,45.40"/>
    </edge>
    <edge id=":Cluster.Main.75_6" function="internal">
        <lane id=":Cluster.Main.75_6_0" index="0" disallow="pedestrian" speed="10.89" length="23.67" shape="85.40,45.40 80.15,46.73 76.40,50.70 74.15,57.32 73.68,63.10"/>
    </edge>
    <edge id=":Cluster.Main.75_15" function="internal">
        <lane id=":Cluster.Main.75_15_0" index="0" disallow="pedestrian" speed="7.33" length="3.95" shape="78.14,36.90 77.15,35.85 76.60,33.40"/>
    </edge>
    <edge id=":Cluster.Main.75_16" function="internal">
        <lane id=":Cluster.Main.75_16_0" index="0" disallow="pedestrian" speed="10.89" length="3.51" shape="73.68,63.10 73.40,66.60"/>
    </edge>
    <edge id=":Cluster.Main.75_7" function="internal">
        <lane id=":Cluster.Main.75_7_0" index="0" disallow="pedestrian" speed="7.33" length="7.77" shape="79.80,66.60 80.15,62.75 81.20,60.00 81.90,59.34"/>
    </edge>
    <edge id=":Cluster.Main.75_8" function="internal">
        <lane id=":Cluster.Main.75_8_0" index="0" disallow="pedestrian" speed="13.89" length="33.38" shape="79.80,66.60 79.30,56.49 78.20,48.12 77.10,40.70 76.60,33.40"/>
    </edge>
    <edge id=":Cluster.Main.75_9" function="internal">
        <lane id=":Cluster.Main.75_9_0" index="0" disallow="pedestrian" speed="10.89" length="13.11" shape="76.60,66.60 75.85,57.32 74.63,53.72"/>
    </edge>
    <edge id=":Cluster.Main.75_17" function="internal">
        <lane id=":Cluster.Main.75_17_0" index="0" disallow="pedestrian" speed="7.33" length="3.95" shape="81.90,59.34 82.95,58.35 85.40,57.80"/>
    </edge>
    <edge id=":Cluster.Main.75_18" function="internal">
        <lane id=":Cluster.Main.75_18_0" index="0" disallow="pedestrian" speed="10.89" length="14.07" shape="74.63,53.72 73.60,50.70 69.85,46.72 64.60,45.40"/>
    </edge>
    <edge id=":Cluster.Main.75_10" function="internal">
        <lane id=":Cluster.Main.75_10_0" index="0" disallow="pedestrian" speed="7.33" length="7.77" shape="64.60,61.00 68.45,61.35 71.20,62.40 71.86,63.10"/>
    </edge>
    <edge id=":Cluster.Main.75_11" function="internal">
        <lane id=":Cluster.Main.75_11_0" index="0" disallow="pedestrian" speed="13.89" length="21.12" shape="64.60,61.00 70.81,60.50 75.00,59.40 79.19,58.30 85.40,57.80"/>
        <lane id=":Cluster.Main.75_11_1" index="1" disallow="pedestrian" speed="13.89" length="21.12" shape="64.60,57.80 70.81,57.30 75.00,56.20 79.19,55.10 85.40,54.60"/>
    </edge>
    <edge id=":Cluster.Main.75_13" function="internal">
        <lane id=":Cluster.Main.75_13_0" index="0" disallow="pedestrian" speed="10.89" length="23.67" shape="64.60,54.60 69.85,53.27 73.60,49.30 75.85,42.67 76.32,36.90"/>
    </edge>
    <edge id=":Cluster.Main.75_19" function="internal">
        <lane id=":Cluster.Main.75_19_0" index="0" disallow="pedestrian" speed="7.33" length="3.95" shape="71.86,63.10 72.85,64.15 73.40,66.60"/>
    </edge>
    <edge id=":Cluster.Main.75_20" function="internal">
        <lane id=":Cluster.Main.75_20_0" index="0" disallow="pedestrian" speed="10.89" length="3.51" shape="76.32,36.90 76.60,33.40"/>
    </edge>
    <edge id=":Cluster.Main.75_c0" function="crossing" crossingEdges="Edge.Minor.75.from.S Edge.Minor.75.to.S">
        <lane id=":Cluster.Main.75_c0_0" index="0" allow="pedestrian" speed="2.78" length="9.60" width="3.50" shape="78.20,35.15 68.60,35.15" outlineShape="78.30,-33.40 68.50,-33.40 68.49,-35.60 68.25,-36.90 81.26,-36.90 80.00,-36.40 79.00,-35.62 78.40,-34.62"/>
    </edge>
    <edge id=":Cluster.Main.75_c1" function="crossing" crossingEdges="Edge.Main.EB.75-120 Edge.Main.WB.75-120">
        <lane id=":Cluster.Main.75_c1_0" index="0" allow="pedestrian" speed="2.78" length="22.00" width="3.50" shape="83.65,59.40 83.65,37.40" outlineShape="85.40,-59.40 85.40,-37.30 85.40,-37.40 83.20,-37.29 81.90,-37.05 81.90,-62.46 82.40,-61.20 83.18,-60.20 84.18,-59.60"/>
    </edge>
    <edge id=":Cluster.Main.75_c2" function="crossing" crossingEdges="Edge.Minor.75.from.N Edge.Minor.75.to.N">
        <lane id=":Cluster.Main.75_c2_0" index="0" allow="pedestrian" speed="2.78" length="9.60" width="3.50" shape="71.80,64.85 81.40,64.85" outlineShape="71.70,-66.60 81.50,-66.60 81.51,-64.40 81.75,-63.10 68.74,-63.10 70.00,-63.60 71.00,-64.38 71.60,-65.38"/>
    </edge>
    <edge id=":Cluster.Main.75_w0" function="walkingarea">
        <lane id=":Cluster.Main.75_w0_0" index="0" allow="pedestrian" speed="2.78" length="4.96" width="3.50" shape="64.60,40.60 64.60,38.60 66.60,33.40 68.60,33.40 68.49,35.60 68.16,37.40 67.60,38.80 66.82,39.80 65.82,40.40"/>
    </edge>
    <edge id=":Cluster.Main.75_w1" function="walkingarea">
        <lane id=":Cluster.Main.75_w1_0" index="0" allow="pedestrian" speed="2.78" length="5.02" width="3.50" shape="78.20,33.40 80.20,33.40 85.40,35.40 85.40,37.40 83.20,37.29 81.40,36.96 80.00,36.40 79.00,35.62 78.40,34.62"/>
    </edge>
    <edge id=":Cluster.Main.75_w2" function="walkingarea">
        <lane id=":Cluster.Main.75_w2_0" index="0" allow="pedestrian" speed="2.78" length="5.02" width="3.50" shape="85.40,59.40 85.40,61.40 83.40,66.60 81.40,66.60 81.51,64.40 81.84,62.60 82.40,61.20 83.18,60.20 84.18,59.60"/>
    </edge>
    <edge id=":Cluster.Main.75_w3" function="walkingarea">
        <lane id=":Cluster.Main.75_w3_0" index="0" allow="pedestrian" speed="2.78" length="5.40" width="3.50" shape="71.80,66.60 69.80,66.60 64.60,64.60 64.60,62.60 66.80,62.71 68.60,63.04 70.00,63.60 71.00,64.38 71.60,65.38"/>
    </edge>
    <edge id=":Node.Minor.225.N-End_0" function="internal">
        <lane id=":Node.Minor.225.N-End_0_0" index="0" disallow="pedestrian" speed="3.65" length="4.67" shape="223.40,100.00 224.20,101.20 225.00,101.60 225.80,101.20 226.60,100.00"/>
    </edge>
    <edge id=":Node.Minor.225.N-End_w0" function="walkingarea">
        <lane id=":Node.Minor.225.N-End_w0_0" index="0" allow="pedestrian" speed="2.78" length="11.60" width="2.00" shape="231.40,100.00 233.40,100.00 219.80,100.00 221.80,100.00"/>
    </edge>
    <edge id=":Node.Minor.75.N-End_0" function="internal">
        <lane id=":Node.Minor.75.N-End_0_0" index="0" disallow="pedestrian" speed="3.65" length="4.67" shape="73.40,100.00 74.20,101.20 75.00,101.60 75.80,101.20 76.60,100.00"/>
    </edge>
    <edge id=":Node.Minor.75.N-End_w0" function="walkingarea">
        <lane id=":Node.Minor.75.N-End_w0_0" index="0" allow="pedestrian" speed="2.78" length="11.60" width="2.00" shape="81.40,100.00 83.40,100.00 69.80,100.00 71.80,100.00"/>
    </edge>
    <edge id=":Node.Minor.75.S-End_0" function="internal">
        <lane id=":Node.Minor.75.S-End_0_0" index="0" disallow="pedestrian" speed="3.65" length="4.67" shape="76.60,-0.00 75.80,-1.20 75.00,-1.60 74.20,-1.20 73.40,-0.00"/>
    </edge>
    <edge id=":Node.Minor.75.S-End_w0" function="walkingarea">
        <lane id=":Node.Minor.75.S-End_w0_0" index="0" allow="pedestrian" speed="2.78" length="11.60" width="2.00" shape="68.60,-0.00 66.60,-0.00 80.20,-0.00 78.20,-0.00"/>
    </edge>

    <edge id="Edge.Main.EB.0-30" from="Node.Main.EB.0" to="Cluster.Main.30" priority="-1" shape="0.00,53.00 30.00,53.00">
        <lane id="Edge.Main.EB.0-30_0" index="0" allow="pedestrian" speed="13.89" length="26.00" width="2.00" shape="0.00,60.40 26.00,60.40"/>
        <lane id="Edge.Main.EB.0-30_1" index="1" disallow="pedestrian" speed="13.89" length="26.00" shape="0.00,57.80 26.00,57.80"/>
        <lane id="Edge.Main.EB.0-30_2" index="2" disallow="pedestrian" speed="13.89" length="26.00" shape="0.00,54.60 26.00,54.60"/>
    </edge>
    <edge id="Edge.Main.EB.120-180" from="Cluster.Main.120" to="Cluster.Main.180" priority="-1" shape="120.00,53.00 180.00,53.00">
        <lane id="Edge.Main.EB.120-180_0" index="0" allow="pedestrian" speed="13.89" length="52.00" width="2.00" shape="124.00,60.40 176.00,60.40"/>
        <lane id="Edge.Main.EB.120-180_1" index="1" disallow="pedestrian" speed="13.89" length="52.00" shape="124.00,57.80 176.00,57.80"/>
        <lane id="Edge.Main.EB.120-180_2" index="2" disallow="pedestrian" speed="13.89" length="52.00" shape="124.00,54.60 176.00,54.60"/>
    </edge>
    <edge id="Edge.Main.EB.180-225" from="Cluster.Main.180" to="Cluster.Main.225" priority="-1" shape="180.00,53.00 225.00,53.00">
        <lane id="Edge.Main.EB.180-225_0" index="0" allow="pedestrian" speed="13.89" length="33.80" width="2.00" shape="184.00,63.60 217.80,63.60"/>
        <lane id="Edge.Main.EB.180-225_1" index="1" disallow="pedestrian" speed="13.89" length="33.80" shape="184.00,61.00 217.80,61.00"/>
        <lane id="Edge.Main.EB.180-225_2" index="2" disallow="pedestrian" speed="13.89" length="33.80" shape="184.00,57.80 217.80,57.80"/>
        <lane id="Edge.Main.EB.180-225_3" index="3" disallow="pedestrian" speed="13.89" length="33.80" shape="184.00,54.60 217.80,54.60"/>
    </edge>
    <edge id="Edge.Main.EB.225-270" from="Cluster.Main.225" to="Cluster.Main.270" priority="-1" shape="225.00,53.00 270.00,53.00">
        <lane id="Edge.Main.EB.225-270_0" index="0" allow="pedestrian" speed="13.89" length="30.60" width="2.00" shape="235.40,60.40 266.00,60.40"/>
        <lane id="Edge.Main.EB.225-270_1" index="1" disallow="pedestrian" speed="13.89" length="30.60" shape="235.40,57.80 266.00,57.80"/>
        <lane id="Edge.Main.EB.225-270_2" index="2" disallow="pedestrian" speed="13.89" length="30.60" shape="235.40,54.60 266.00,54.60"/>
    </edge>
    <edge id="Edge.Main.EB.270-300" from="Cluster.Main.270" to="Node.Main.EB.300" priority="-1" shape="270.00,53.00 300.00,53.00">
        <lane id="Edge.Main.EB.270-300_0" index="0" allow="pedestrian" speed="13.89" length="26.00" width="2.00" shape="274.00,60.40 300.00,60.40"/>
        <lane id="Edge.Main.EB.270-300_1" index="1" disallow="pedestrian" speed="13.89" length="26.00" shape="274.00,57.80 300.00,57.80"/>
        <lane id="Edge.Main.EB.270-300_2" index="2" disallow="pedestrian" speed="13.89" length="26.00" shape="274.00,54.60 300.00,54.60"/>
    </edge>
    <edge id="Edge.Main.EB.30-75" from="Cluster.Main.30" to="Cluster.Main.75" priority="-1" shape="30.00,53.00 75.00,53.00">
        <lane id="Edge.Main.EB.30-75_0" index="0" allow="pedestrian" speed="13.89" length="30.60" width="2.00" shape="34.00,63.60 64.60,63.60"/>
        <lane id="Edge.Main.EB.30-75_1" index="1" disallow="pedestrian" speed="13.89" length="30.60" shape="34.00,61.00 64.60,61.00"/>
        <lane id="Edge.Main.EB.30-75_2" index="2" disallow="pedestrian" speed="13.89" length="30.60" shape="34.00,57.80 64.60,57.80"/>
        <lane id="Edge.Main.EB.30-75_3" index="3" disallow="pedestrian" speed="13.89" length="30.60" shape="34.00,54.60 64.60,54.60"/>
    </edge>
    <edge id="Edge.Main.EB.75-120" from="Cluster.Main.75" to="Cluster.Main.120" priority="-1" shape="75.00,53.00 120.00,53.00">
        <lane id="Edge.Main.EB.75-120_0" index="0" allow="pedestrian" speed="13.89" length="30.60" width="2.00" shape="85.40,60.40 116.00,60.40"/>
        <lane id="Edge.Main.EB.75-120_1" index="1" disallow="pedestrian" speed="13.89" length="30.60" shape="85.40,57.80 116.00,57.80"/>
        <lane id="Edge.Main.EB.75-120_2" index="2" disallow="pedestrian" speed="13.89" length="30.60" shape="85.40,54.60 116.00,54.60"/>
    </edge>
    <edge id="Edge.Main.WB.0-30" from="Cluster.Main.30" to="Node.Main.WB.0" priority="-1" shape="30.00,47.00 0.00,47.00">
        <lane id="Edge.Main.WB.0-30_0" index="0" allow="pedestrian" speed="13.89" length="26.00" width="2.00" shape="26.00,39.60 0.00,39.60"/>
        <lane id="Edge.Main.WB.0-30_1" index="1" disallow="pedestrian" speed="13.89" length="26.00" shape="26.00,42.20 0.00,42.20"/>
        <lane id="Edge.Main.WB.0-30_2" index="2" disallow="pedestrian" speed="13.89" length="26.00" shape="26.00,45.40 0.00,45.40"/>
    </edge>
    <edge id="Edge.Main.WB.120-180" from="Cluster.Main.180" to="Cluster.Main.120" priority="-1" shape="180.00,47.00 120.00,47.00">
        <lane id="Edge.Main.WB.120-180_0" index="0" allow="pedestrian" speed="13.89" length="52.00" width="2.00" shape="176.00,39.60 124.00,39.60"/>
        <lane id="Edge.Main.WB.120-180_1" index="1" disallow="pedestrian" speed="13.89" length="52.00" shape="176.00,42.20 124.00,42.20"/>
        <lane id="Edge.Main.WB.120-180_2" index="2" disallow="pedestrian" speed="13.89" length="52.00" shape="176.00,45.40 124.00,45.40"/>
    </edge>
    <edge id="Edge.Main.WB.180-225" from="Cluster.Main.225" to="Cluster.Main.180" priority="-1" shape="225.00,47.00 180.00,47.00">
        <lane id="Edge.Main.WB.180-225_0" index="0" allow="pedestrian" speed="13.89" length="33.80" width="2.00" shape="217.80,39.60 184.00,39.60"/>
        <lane id="Edge.Main.WB.180-225_1" index="1" disallow="pedestrian" speed="13.89" length="33.80" shape="217.80,42.20 184.00,42.20"/>
        <lane id="Edge.Main.WB.180-225_2" index="2" disallow="pedestrian" speed="13.89" length="33.80" shape="217.80,45.40 184.00,45.40"/>
    </edge>
    <edge id="Edge.Main.WB.225-270" from="Cluster.Main.270" to="Cluster.Main.225" priority="-1" shape="270.00,47.00 225.00,47.00">
        <lane id="Edge.Main.WB.225-270_0" index="0" allow="pedestrian" speed="13.89" length="30.60" width="2.00" shape="266.00,36.40 235.40,36.40"/>
        <lane id="Edge.Main.WB.225-270_1" index="1" disallow="pedestrian" speed="13.89" length="30.60" shape="266.00,39.00 235.40,39.00"/>
        <lane id="Edge.Main.WB.225-270_2" index="2" disallow="pedestrian" speed="13.89" length="30.60" shape="266.00,42.20 235.40,42.20"/>
        <lane id="Edge.Main.WB.225-270_3" index="3" disallow="pedestrian" speed="13.89" length="30.60" shape="266.00,45.40 235.40,45.40"/>
    </edge>
    <edge id="Edge.Main.WB.270-300" from="Node.Main.WB.300" to="Cluster.Main.270" priority="-1" shape="300.00,47.00 270.00,47.00">
        <lane id="Edge.Main.WB.270-300_0" index="0" allow="pedestrian" speed="13.89" length="26.00" width="2.00" shape="300.00,39.60 274.00,39.60"/>
        <lane id="Edge.Main.WB.270-300_1" index="1" disallow="pedestrian" speed="13.89" length="26.00" shape="300.00,42.20 274.00,42.20"/>
        <lane id="Edge.Main.WB.270-300_2" index="2" disallow="pedestrian" speed="13.89" length="26.00" shape="300.00,45.40 274.00,45.40"/>
    </edge>
    <edge id="Edge.Main.WB.30-75" from="Cluster.Main.75" to="Cluster.Main.30" priority="-1" shape="75.00,47.00 30.00,47.00">
        <lane id="Edge.Main.WB.30-75_0" index="0" allow="pedestrian" speed="13.89" length="30.60" width="2.00" shape="64.60,39.60 34.00,39.60"/>
        <lane id="Edge.Main.WB.30-75_1" index="1" disallow="pedestrian" speed="13.89" length="30.60" shape="64.60,42.20 34.00,42.20"/>
        <lane id="Edge.Main.WB.30-75_2" index="2" disallow="pedestrian" speed="13.89" length="30.60" shape="64.60,45.40 34.00,45.40"/>
    </edge>
    <edge id="Edge.Main.WB.75-120" from="Cluster.Main.120" to="Cluster.Main.75" priority="-1" shape="120.00,47.00 75.00,47.00">
        <lane id="Edge.Main.WB.75-120_0" index="0" allow="pedestrian" speed="13.89" length="30.60" width="2.00" shape="116.00,36.40 85.40,36.40"/>
        <lane id="Edge.Main.WB.75-120_1" index="1" disallow="pedestrian" speed="13.89" length="30.60" shape="116.00,39.00 85.40,39.00"/>
        <lane id="Edge.Main.WB.75-120_2" index="2" disallow="pedestrian" speed="13.89" length="30.60" shape="116.00,42.20 85.40,42.20"/>