<tlLogics version="1.20" xmlns:xsi="http://www.w3.org/2001/XMLSchema-instance" xsi:noNamespaceSchemaLocation="http://sumo.dlr.de/xsd/tllogic_file.xsd">
    <tlLogic id="Cluster.Main.225" type="static" programID="0" offset="0">
        <phase duration="29" state="GGrrrrrGGrrrGrr"/>
        <phase duration="3" state="GGrrrrrGGrrrrrr"/>
        <phase duration="3" state="yyrrrrryyrrrrrr"/>
        <phase duration="2" state="rrrrrrrrrrrrrrr"/>
        <phase duration="14" state="rrgGGrrrrrGrrGG"/>
        <phase duration="3" state="rrgGGrrrrrrrrrr"/>
        <phase duration="3" state="rryyyrrrrrrrrrr"/>
        <phase duration="2" state="rrrrrrrrrrrrrrr"/>
        <phase duration="23" state="rrrrrgGrrrGGrrG"/>
        <phase duration="3" state="rrrrrgGrrrrrrrr"/>
        <phase duration="3" state="rrrrryyrrrrrrrr"/>
        <phase duration="2" state="rrrrrrrrrrrrrrr"/>
    </tlLogic>
    <tlLogic id="Cluster.Main.75" type="static" programID="0" offset="0">
        <phase duration="22" state="rrrGGGrrrrGGGrGG"/>
        <phase duration="2" state="rrrGGGrrrrGGGrrr"/>
        <phase duration="3" state="rrryyyrrrryyyrrr"/>
        <phase duration="13" state="rrrrrrgrrrrrrgrr"/>
        <phase duration="3" state="rrrrrryrrrrrryrr"/>
        <phase duration="5" state="rrrrrrrrrrrrrrGG"/>
        <phase duration="5" state="rrrrrrrrrrrrrrrr"/>
        <phase duration="32" state="GGgrrrrGGgrrrrrr"/>
        <phase duration="3" state="yyyrrrryyyrrrrrr"/>
        <phase duration="2" state="rrrrrrrrrrrrrrrr"/>
    </tlLogic>
    <connection from="Edge.Main.WB.225-270" to="Edge.Main.WB.180-225" fromLane="1" toLane="1" tl="Cluster.Main.225" linkIndex="0"/>
    <connection from="Edge.Main.WB.225-270" to="Edge.Main.WB.180-225" fromLane="2" toLane="2" tl="Cluster.Main.225" linkIndex="1"/>
    <connection from="Edge.Main.WB.225-270" to="Edge.Minor.225.from.N" fromLane="3" toLane="1" tl="Cluster.Main.225" linkIndex="2"/>
    <connection from="Edge.Main.WB.225-270" to="Edge.Main.EB.225-270" fromLane="3" toLane="2" tl="Cluster.Main.225" linkIndex="3"/>
    <connection from="Edge.Minor.225.to.N" to="Edge.Main.EB.225-270" fromLane="1" toLane="1" tl="Cluster.Main.225" linkIndex="4"/>
    <connection from="Edge.Minor.225.to.N" to="Edge.Main.WB.180-225" fromLane="2" toLane="2" tl="Cluster.Main.225" linkIndex="5"/>
    <connection from="Edge.Main.EB.180-225" to="Edge.Minor.225.from.N" fromLane="1" toLane="1" tl="Cluster.Main.225" linkIndex="6"/>
    <connection from="Edge.Main.EB.180-225" to="Edge.Main.EB.225-270" fromLane="2" toLane="1" tl="Cluster.Main.225" linkIndex="7"/>
    <connection from="Edge.Main.EB.180-225" to="Edge.Main.EB.225-270" fromLane="3" toLane="2" tl="Cluster.Main.225" linkIndex="8"/>
    <connection from="Edge.Main.EB.180-225" to="Edge.Main.WB.180-225" fromLane="3" toLane="2" tl="Cluster.Main.225" linkIndex="9"/>
    <connection from="Edge.Minor.75.to.S" to="Edge.Main.WB.30-75" fromLane="1" toLane="1" tl="Cluster.Main.75" linkIndex="0"/>
    <connection from="Edge.Minor.75.to.S" to="Edge.Minor.75.from.N" fromLane="1" toLane="1" tl="Cluster.Main.75" linkIndex="1"/>
    <connection from="Edge.Minor.75.to.S" to="Edge.Main.EB.75-120" fromLane="2" toLane="2" tl="Cluster.Main.75" linkIndex="2"/>
    <connection from="Edge.Main.WB.75-120" to="Edge.Minor.75.from.S" fromLane="1" toLane="1" tl="Cluster.Main.75" linkIndex="3"/>
    <connection from="Edge.Main.WB.75-120" to="Edge.Main.WB.30-75" fromLane="1" toLane="1" tl="Cluster.Main.75" linkIndex="4"/>
    <connection from="Edge.Main.WB.75-120" to="Edge.Main.WB.30-75" fromLane="2" toLane="2" tl="Cluster.Main.75" linkIndex="5"/>
    <connection from="Edge.Main.WB.75-120" to="Edge.Minor.75.from.N" fromLane="3" toLane="1" tl="Cluster.Main.75" linkIndex="6"/>
    <connection from="Edge.Minor.75.to.N" to="Edge.Main.EB.75-120" fromLane="1" toLane="1" tl="Cluster.Main.75" linkIndex="7"/>
    <connection from="Edge.Minor.75.to.N" to="Edge.Minor.75.from.S" fromLane="1" toLane="1" tl="Cluster.Main.75" linkIndex="8"/>
    <connection from="Edge.Minor.75.to.N" to="Edge.Main.WB.30-75" fromLane="2" toLane="2" tl="Cluster.Main.75" linkIndex="9"/>
    <connection from="Edge.Main.EB.30-75" to="Edge.Minor.75.from.N" fromLane="1" toLane="1" tl="Cluster.Main.75" linkIndex="10"/>
    <connection from="Edge.Main.EB.30-75" to="Edge.Main.EB.75-120" fromLane="1" toLane="1" tl="Cluster.Main.75" linkIndex="11"/>
    <connection from="Edge.Main.EB.30-75" to="Edge.Main.EB.75-120" fromLane="2" toLane="2" tl="Cluster.Main.75" linkIndex="12"/>
    <connection from="Edge.Main.EB.30-75" to="Edge.Minor.75.from.S" fromLane="3" toLane="1" tl="Cluster.Main.75" linkIndex="13"/>
</tlLogics>