<?xml version="1.0" encoding="UTF-8"?>

<!-- generated on 2025-11-02 08:34:09 by Eclipse SUMO netconvert Version 1.18.0
<configuration xmlns:xsi="http://www.w3.org/2001/XMLSchema-instance" xsi:noNamespaceSchemaLocation="http://sumo.dlr.de/xsd/netconvertConfiguration.xsd">

    <input>
        <node-files value="1-generated.nod.xml"/>
        <edge-files value="1-generated.edg.xml"/>
    </input>

    <output>
        <plain-output-prefix value="2-cooked"/>
    </output>

    <processing>
        <lefthand value="true"/>
    </processing>

    <junctions>
        <no-internal-links value="true"/>
    </junctions>

    <pedestrian>
        <sidewalks.guess value="true"/>
    </pedestrian>

</configuration>
-->

<connections version="1.16" xmlns:xsi="http://www.w3.org/2001/XMLSchema-instance" xsi:noNamespaceSchemaLocation="http://sumo.dlr.de/xsd/connections_file.xsd">
    <connection from="Edge.Main.EB.0-30" to="Edge.Main.EB.30-75" fromLane="1" toLane="1"/>
    <connection from="Edge.Main.EB.0-30" to="Edge.Main.EB.30-75" fromLane="2" toLane="2"/>
    <connection from="Edge.Main.EB.0-30" to="Edge.Main.EB.30-75" fromLane="2" toLane="3"/>

    <connection from="Edge.Main.EB.120-180" to="Edge.Main.EB.180-225" fromLane="1" toLane="1"/>
    <connection from="Edge.Main.EB.120-180" to="Edge.Main.EB.180-225" fromLane="2" toLane="2"/>
    <connection from="Edge.Main.EB.120-180" to="Edge.Main.EB.180-225" fromLane="2" toLane="3"/>

    <connection from="Edge.Main.EB.180-225" to="Edge.MinorN.NB.225" fromLane="1" toLane="1"/>
    <connection from="Edge.Main.EB.180-225" to="Edge.Main.EB.225-270" fromLane="2" toLane="1"/>
    <connection from="Edge.Main.EB.180-225" to="Edge.Main.EB.225-270" fromLane="3" toLane="2"/>

    <connection from="Edge.Main.EB.225-270" to="Edge.Main.EB.270-300" fromLane="1" toLane="1"/>
    <connection from="Edge.Main.EB.225-270" to="Edge.Main.EB.270-300" fromLane="2" toLane="2"/>

    <connection from="Edge.Main.EB.30-75" to="Edge.MinorN.NB.75" fromLane="1" toLane="1"/>
    <connection from="Edge.Main.EB.30-75" to="Edge.Main.EB.75-120" fromLane="2" toLane="1"/>
    <connection from="Edge.Main.EB.30-75" to="Edge.Main.EB.75-120" fromLane="3" toLane="2"/>

    <connection from="Edge.Main.EB.75-120" to="Edge.Main.EB.120-180" fromLane="1" toLane="1"/>
    <connection from="Edge.Main.EB.75-120" to="Edge.Main.EB.120-180" fromLane="2" toLane="2"/>

    <connection from="Edge.Main.WB.120-75" to="Edge.MinorS.SB.75" fromLane="1" toLane="1"/>
    <connection from="Edge.Main.WB.120-75" to="Edge.Main.WB.75-30" fromLane="2" toLane="1"/>
    <connection from="Edge.Main.WB.120-75" to="Edge.Main.WB.75-30" fromLane="3" toLane="2"/>

    <connection from="Edge.Main.WB.180-120" to="Edge.Main.WB.120-75" fromLane="1" toLane="1"/>
    <connection from="Edge.Main.WB.180-120" to="Edge.Main.WB.120-75" fromLane="2" toLane="2"/>
    <connection from="Edge.Main.WB.180-120" to="Edge.Main.WB.120-75" fromLane="2" toLane="3"/>

    <connection from="Edge.Main.WB.225-180" to="Edge.Main.WB.180-120" fromLane="1" toLane="1"/>
    <connection from="Edge.Main.WB.225-180" to="Edge.Main.WB.180-120" fromLane="2" toLane="2"/>

    <connection from="Edge.Main.WB.270-225" to="Edge.Main.WB.225-180" fromLane="1" toLane="1"/>
    <connection from="Edge.Main.WB.270-225" to="Edge.Main.WB.225-180" fromLane="2" toLane="2"/>

    <connection from="Edge.Main.WB.300-270" to="Edge.Main.WB.270-225" fromLane="1" toLane="1"/>
    <connection from="Edge.Main.WB.300-270" to="Edge.Main.WB.270-225" fromLane="2" toLane="2"/>
    <connection from="Edge.Main.WB.300-270" to="Edge.Main.WB.270-225" fromLane="2" toLane="3"/>

    <connection from="Edge.Main.WB.75-30" to="Edge.Main.WB.30-0" fromLane="1" toLane="1"/>
    <connection from="Edge.Main.WB.75-30" to="Edge.Main.WB.30-0" fromLane="2" toLane="2"/>

    <connection from="Edge.MinorN.NB.225" to="Edge.MinorN.SB.225" fromLane="1" toLane="2"/>

    <connection from="Edge.MinorN.NB.75" to="Edge.MinorN.SB.75" fromLane="1" toLane="2"/>

    <connection from="Edge.MinorN.SB.225" to="Edge.Main.EB.225-270" fromLane="1" toLane="1"/>
    <connection from="Edge.MinorN.SB.225" to="Edge.Main.EB.225-270" fromLane="2" toLane="2"/>
    <connection from="Edge.MinorN.SB.225" to="Edge.MinorN.NB.225" fromLane="2" toLane="1"/>

    <connection from="Edge.MinorN.SB.75" to="Edge.Main.EB.75-120" fromLane="1" toLane="1"/>
    <connection from="Edge.MinorN.SB.75" to="Edge.Main.EB.75-120" fromLane="2" toLane="2"/>
    <connection from="Edge.MinorN.SB.75" to="Edge.MinorN.NB.75" fromLane="2" toLane="1"/>

    <connection from="Edge.MinorS.NB.75" to="Edge.Main.WB.75-30" fromLane="1" toLane="1"/>
    <connection from="Edge.MinorS.NB.75" to="Edge.Main.WB.75-30" fromLane="2" toLane="2"/>
    <connection from="Edge.MinorS.NB.75" to="Edge.MinorS.SB.75" fromLane="2" toLane="1"/>

    <connection from="Edge.MinorS.SB.75" to="Edge.MinorS.NB.75" fromLane="1" toLane="2"/>

</connections>
