<?xml version="1.0" encoding="UTF-8"?>

<!-- generated on 2025-11-08 00:07:08 by Eclipse SUMO netedit Version 1.24.0
-->

<routes xmlns:xsi="http://www.w3.org/2001/XMLSchema-instance" xsi:noNamespaceSchemaLocation="http://sumo.dlr.de/xsd/routes_file.xsd">
    <!-- Vehicles, persons and containers (sorted by depart) -->
    <flow id="f_0" begin="0.00" fromJunction="Node.Minor.350.N_end" toJunction="Node.Minor.1000.S_end" end="3600.00" vehsPerHour="1800"/>
    <flow id="f_1" begin="0.00" fromJunction="Node.Main.1500.S" toJunction="Node.Main.0.S" end="3600.00" vehsPerHour="1800"/>
    <flow id="f_2" begin="0.00" fromJunction="Node.Main.0.N" toJunction="Node.Main.1500.N" end="3600.00" vehsPerHour="1800"/>
    <!-- ped information can be put next to flows:
    <person ......
        <personTrip from=......../>
    </person>
    -->
</routes>
